
---------- Begin Simulation Statistics ----------
simSeconds                                   0.000018                       # Number of seconds simulated (Second)
simTicks                                     17898750                       # Number of ticks simulated (Tick)
finalTick                                    79215039                       # Number of ticks from beginning of simulation (restored from checkpoints and never reset) (Tick)
simFreq                                  1000000000000                       # The number of ticks per simulated second ((Tick/Second))
hostSeconds                                      0.16                       # Real time elapsed on the host (Second)
hostTickRate                                110691779                       # The number of ticks simulated per host second (ticks/s) ((Tick/Second))
hostMemory                                    7523316                       # Number of bytes of host memory used (Byte)
simInsts                                        66883                       # Number of instructions simulated (Count)
simOps                                          66883                       # Number of ops (including micro ops) simulated (Count)
hostInstRate                                   413294                       # Simulator instruction rate (inst/s) ((Count/Second))
hostOpRate                                     413279                       # Simulator op (including micro ops) rate (op/s) ((Count/Second))
board.cache_hierarchy.l1dcaches.demandHits::processor.cores.core.data        17803                       # number of demand (read+write) hits (Count)
board.cache_hierarchy.l1dcaches.demandHits::total        17803                       # number of demand (read+write) hits (Count)
board.cache_hierarchy.l1dcaches.overallHits::processor.cores.core.data        17803                       # number of overall hits (Count)
board.cache_hierarchy.l1dcaches.overallHits::total        17803                       # number of overall hits (Count)
board.cache_hierarchy.l1dcaches.demandMisses::processor.cores.core.data          544                       # number of demand (read+write) misses (Count)
board.cache_hierarchy.l1dcaches.demandMisses::total          544                       # number of demand (read+write) misses (Count)
board.cache_hierarchy.l1dcaches.overallMisses::processor.cores.core.data          544                       # number of overall misses (Count)
board.cache_hierarchy.l1dcaches.overallMisses::total          544                       # number of overall misses (Count)
board.cache_hierarchy.l1dcaches.demandMissLatency::processor.cores.core.data     20566413                       # number of demand (read+write) miss ticks (Tick)
board.cache_hierarchy.l1dcaches.demandMissLatency::total     20566413                       # number of demand (read+write) miss ticks (Tick)
board.cache_hierarchy.l1dcaches.overallMissLatency::processor.cores.core.data     20566413                       # number of overall miss ticks (Tick)
board.cache_hierarchy.l1dcaches.overallMissLatency::total     20566413                       # number of overall miss ticks (Tick)
board.cache_hierarchy.l1dcaches.demandAccesses::processor.cores.core.data        18347                       # number of demand (read+write) accesses (Count)
board.cache_hierarchy.l1dcaches.demandAccesses::total        18347                       # number of demand (read+write) accesses (Count)
board.cache_hierarchy.l1dcaches.overallAccesses::processor.cores.core.data        18347                       # number of overall (read+write) accesses (Count)
board.cache_hierarchy.l1dcaches.overallAccesses::total        18347                       # number of overall (read+write) accesses (Count)
board.cache_hierarchy.l1dcaches.demandMissRate::processor.cores.core.data     0.029651                       # miss rate for demand accesses (Ratio)
board.cache_hierarchy.l1dcaches.demandMissRate::total     0.029651                       # miss rate for demand accesses (Ratio)
board.cache_hierarchy.l1dcaches.overallMissRate::processor.cores.core.data     0.029651                       # miss rate for overall accesses (Ratio)
board.cache_hierarchy.l1dcaches.overallMissRate::total     0.029651                       # miss rate for overall accesses (Ratio)
board.cache_hierarchy.l1dcaches.demandAvgMissLatency::processor.cores.core.data 37805.906250                       # average overall miss latency in ticks ((Tick/Count))
board.cache_hierarchy.l1dcaches.demandAvgMissLatency::total 37805.906250                       # average overall miss latency in ticks ((Tick/Count))
board.cache_hierarchy.l1dcaches.overallAvgMissLatency::processor.cores.core.data 37805.906250                       # average overall miss latency ((Tick/Count))
board.cache_hierarchy.l1dcaches.overallAvgMissLatency::total 37805.906250                       # average overall miss latency ((Tick/Count))
board.cache_hierarchy.l1dcaches.blockedCycles::no_mshrs            0                       # number of cycles access was blocked (Cycle)
board.cache_hierarchy.l1dcaches.blockedCycles::no_wbuffers            0                       # number of cycles access was blocked (Cycle)
board.cache_hierarchy.l1dcaches.blockedCycles::no_targets            0                       # number of cycles access was blocked (Cycle)
board.cache_hierarchy.l1dcaches.blockedCauses::no_mshrs            0                       # number of times access was blocked (Count)
board.cache_hierarchy.l1dcaches.blockedCauses::no_wbuffers            0                       # number of times access was blocked (Count)
board.cache_hierarchy.l1dcaches.blockedCauses::no_targets            0                       # number of times access was blocked (Count)
board.cache_hierarchy.l1dcaches.avgBlocked::no_mshrs          nan                       # average number of cycles each access was blocked ((Cycle/Count))
board.cache_hierarchy.l1dcaches.avgBlocked::no_wbuffers          nan                       # average number of cycles each access was blocked ((Cycle/Count))
board.cache_hierarchy.l1dcaches.avgBlocked::no_targets          nan                       # average number of cycles each access was blocked ((Cycle/Count))
board.cache_hierarchy.l1dcaches.writebacks::writebacks          463                       # number of writebacks (Count)
board.cache_hierarchy.l1dcaches.writebacks::total          463                       # number of writebacks (Count)
board.cache_hierarchy.l1dcaches.demandMshrHits::processor.cores.core.data          520                       # number of demand (read+write) MSHR hits (Count)
board.cache_hierarchy.l1dcaches.demandMshrHits::total          520                       # number of demand (read+write) MSHR hits (Count)
board.cache_hierarchy.l1dcaches.overallMshrHits::processor.cores.core.data          520                       # number of overall MSHR hits (Count)
board.cache_hierarchy.l1dcaches.overallMshrHits::total          520                       # number of overall MSHR hits (Count)
board.cache_hierarchy.l1dcaches.demandMshrMisses::processor.cores.core.data           24                       # number of demand (read+write) MSHR misses (Count)
board.cache_hierarchy.l1dcaches.demandMshrMisses::total           24                       # number of demand (read+write) MSHR misses (Count)
board.cache_hierarchy.l1dcaches.overallMshrMisses::cache_hierarchy.l1dcaches.prefetcher          484                       # number of overall MSHR misses (Count)
board.cache_hierarchy.l1dcaches.overallMshrMisses::processor.cores.core.data           24                       # number of overall MSHR misses (Count)
board.cache_hierarchy.l1dcaches.overallMshrMisses::total          508                       # number of overall MSHR misses (Count)
board.cache_hierarchy.l1dcaches.demandMshrMissLatency::processor.cores.core.data      1152180                       # number of demand (read+write) MSHR miss ticks (Tick)
board.cache_hierarchy.l1dcaches.demandMshrMissLatency::total      1152180                       # number of demand (read+write) MSHR miss ticks (Tick)
board.cache_hierarchy.l1dcaches.overallMshrMissLatency::cache_hierarchy.l1dcaches.prefetcher     31034586                       # number of overall MSHR miss ticks (Tick)
board.cache_hierarchy.l1dcaches.overallMshrMissLatency::processor.cores.core.data      1152180                       # number of overall MSHR miss ticks (Tick)
board.cache_hierarchy.l1dcaches.overallMshrMissLatency::total     32186766                       # number of overall MSHR miss ticks (Tick)
board.cache_hierarchy.l1dcaches.demandMshrMissRate::processor.cores.core.data     0.001308                       # mshr miss ratio for demand accesses (Ratio)
board.cache_hierarchy.l1dcaches.demandMshrMissRate::total     0.001308                       # mshr miss ratio for demand accesses (Ratio)
board.cache_hierarchy.l1dcaches.overallMshrMissRate::cache_hierarchy.l1dcaches.prefetcher          inf                       # mshr miss ratio for overall accesses (Ratio)
board.cache_hierarchy.l1dcaches.overallMshrMissRate::processor.cores.core.data     0.001308                       # mshr miss ratio for overall accesses (Ratio)
board.cache_hierarchy.l1dcaches.overallMshrMissRate::total     0.027688                       # mshr miss ratio for overall accesses (Ratio)
board.cache_hierarchy.l1dcaches.demandAvgMshrMissLatency::processor.cores.core.data 48007.500000                       # average overall mshr miss latency ((Tick/Count))
board.cache_hierarchy.l1dcaches.demandAvgMshrMissLatency::total 48007.500000                       # average overall mshr miss latency ((Tick/Count))
board.cache_hierarchy.l1dcaches.overallAvgMshrMissLatency::cache_hierarchy.l1dcaches.prefetcher 64121.045455                       # average overall mshr miss latency ((Tick/Count))
board.cache_hierarchy.l1dcaches.overallAvgMshrMissLatency::processor.cores.core.data 48007.500000                       # average overall mshr miss latency ((Tick/Count))
board.cache_hierarchy.l1dcaches.overallAvgMshrMissLatency::total 63359.775591                       # average overall mshr miss latency ((Tick/Count))
board.cache_hierarchy.l1dcaches.replacements          508                       # number of replacements (Count)
board.cache_hierarchy.l1dcaches.HardPFReq.mshrMisses::cache_hierarchy.l1dcaches.prefetcher          484                       # number of HardPFReq MSHR misses (Count)
board.cache_hierarchy.l1dcaches.HardPFReq.mshrMisses::total          484                       # number of HardPFReq MSHR misses (Count)
board.cache_hierarchy.l1dcaches.HardPFReq.mshrMissLatency::cache_hierarchy.l1dcaches.prefetcher     31034586                       # number of HardPFReq MSHR miss ticks (Tick)
board.cache_hierarchy.l1dcaches.HardPFReq.mshrMissLatency::total     31034586                       # number of HardPFReq MSHR miss ticks (Tick)
board.cache_hierarchy.l1dcaches.HardPFReq.mshrMissRate::cache_hierarchy.l1dcaches.prefetcher          inf                       # mshr miss rate for HardPFReq accesses (Ratio)
board.cache_hierarchy.l1dcaches.HardPFReq.mshrMissRate::total          inf                       # mshr miss rate for HardPFReq accesses (Ratio)
board.cache_hierarchy.l1dcaches.HardPFReq.avgMshrMissLatency::cache_hierarchy.l1dcaches.prefetcher 64121.045455                       # average HardPFReq mshr miss latency ((Tick/Count))
board.cache_hierarchy.l1dcaches.HardPFReq.avgMshrMissLatency::total 64121.045455                       # average HardPFReq mshr miss latency ((Tick/Count))
board.cache_hierarchy.l1dcaches.ReadReq.hits::processor.cores.core.data        17288                       # number of ReadReq hits (Count)
board.cache_hierarchy.l1dcaches.ReadReq.hits::total        17288                       # number of ReadReq hits (Count)
board.cache_hierarchy.l1dcaches.ReadReq.misses::processor.cores.core.data          537                       # number of ReadReq misses (Count)
board.cache_hierarchy.l1dcaches.ReadReq.misses::total          537                       # number of ReadReq misses (Count)
board.cache_hierarchy.l1dcaches.ReadReq.missLatency::processor.cores.core.data     20212767                       # number of ReadReq miss ticks (Tick)
board.cache_hierarchy.l1dcaches.ReadReq.missLatency::total     20212767                       # number of ReadReq miss ticks (Tick)
board.cache_hierarchy.l1dcaches.ReadReq.accesses::processor.cores.core.data        17825                       # number of ReadReq accesses(hits+misses) (Count)
board.cache_hierarchy.l1dcaches.ReadReq.accesses::total        17825                       # number of ReadReq accesses(hits+misses) (Count)
board.cache_hierarchy.l1dcaches.ReadReq.missRate::processor.cores.core.data     0.030126                       # miss rate for ReadReq accesses (Ratio)
board.cache_hierarchy.l1dcaches.ReadReq.missRate::total     0.030126                       # miss rate for ReadReq accesses (Ratio)
board.cache_hierarchy.l1dcaches.ReadReq.avgMissLatency::processor.cores.core.data 37640.162011                       # average ReadReq miss latency ((Tick/Count))
board.cache_hierarchy.l1dcaches.ReadReq.avgMissLatency::total 37640.162011                       # average ReadReq miss latency ((Tick/Count))
board.cache_hierarchy.l1dcaches.ReadReq.mshrHits::processor.cores.core.data          517                       # number of ReadReq MSHR hits (Count)
board.cache_hierarchy.l1dcaches.ReadReq.mshrHits::total          517                       # number of ReadReq MSHR hits (Count)
board.cache_hierarchy.l1dcaches.ReadReq.mshrMisses::processor.cores.core.data           20                       # number of ReadReq MSHR misses (Count)
board.cache_hierarchy.l1dcaches.ReadReq.mshrMisses::total           20                       # number of ReadReq MSHR misses (Count)
board.cache_hierarchy.l1dcaches.ReadReq.mshrMissLatency::processor.cores.core.data       925074                       # number of ReadReq MSHR miss ticks (Tick)
board.cache_hierarchy.l1dcaches.ReadReq.mshrMissLatency::total       925074                       # number of ReadReq MSHR miss ticks (Tick)
board.cache_hierarchy.l1dcaches.ReadReq.mshrMissRate::processor.cores.core.data     0.001122                       # mshr miss rate for ReadReq accesses (Ratio)
board.cache_hierarchy.l1dcaches.ReadReq.mshrMissRate::total     0.001122                       # mshr miss rate for ReadReq accesses (Ratio)
board.cache_hierarchy.l1dcaches.ReadReq.avgMshrMissLatency::processor.cores.core.data 46253.700000                       # average ReadReq mshr miss latency ((Tick/Count))
board.cache_hierarchy.l1dcaches.ReadReq.avgMshrMissLatency::total 46253.700000                       # average ReadReq mshr miss latency ((Tick/Count))
board.cache_hierarchy.l1dcaches.WriteReq.hits::processor.cores.core.data          515                       # number of WriteReq hits (Count)
board.cache_hierarchy.l1dcaches.WriteReq.hits::total          515                       # number of WriteReq hits (Count)
board.cache_hierarchy.l1dcaches.WriteReq.misses::processor.cores.core.data            7                       # number of WriteReq misses (Count)
board.cache_hierarchy.l1dcaches.WriteReq.misses::total            7                       # number of WriteReq misses (Count)
board.cache_hierarchy.l1dcaches.WriteReq.missLatency::processor.cores.core.data       353646                       # number of WriteReq miss ticks (Tick)
board.cache_hierarchy.l1dcaches.WriteReq.missLatency::total       353646                       # number of WriteReq miss ticks (Tick)
board.cache_hierarchy.l1dcaches.WriteReq.accesses::processor.cores.core.data          522                       # number of WriteReq accesses(hits+misses) (Count)
board.cache_hierarchy.l1dcaches.WriteReq.accesses::total          522                       # number of WriteReq accesses(hits+misses) (Count)
board.cache_hierarchy.l1dcaches.WriteReq.missRate::processor.cores.core.data     0.013410                       # miss rate for WriteReq accesses (Ratio)
board.cache_hierarchy.l1dcaches.WriteReq.missRate::total     0.013410                       # miss rate for WriteReq accesses (Ratio)
board.cache_hierarchy.l1dcaches.WriteReq.avgMissLatency::processor.cores.core.data 50520.857143                       # average WriteReq miss latency ((Tick/Count))
board.cache_hierarchy.l1dcaches.WriteReq.avgMissLatency::total 50520.857143                       # average WriteReq miss latency ((Tick/Count))
board.cache_hierarchy.l1dcaches.WriteReq.mshrHits::processor.cores.core.data            3                       # number of WriteReq MSHR hits (Count)
board.cache_hierarchy.l1dcaches.WriteReq.mshrHits::total            3                       # number of WriteReq MSHR hits (Count)
board.cache_hierarchy.l1dcaches.WriteReq.mshrMisses::processor.cores.core.data            4                       # number of WriteReq MSHR misses (Count)
board.cache_hierarchy.l1dcaches.WriteReq.mshrMisses::total            4                       # number of WriteReq MSHR misses (Count)
board.cache_hierarchy.l1dcaches.WriteReq.mshrMissLatency::processor.cores.core.data       227106                       # number of WriteReq MSHR miss ticks (Tick)
board.cache_hierarchy.l1dcaches.WriteReq.mshrMissLatency::total       227106                       # number of WriteReq MSHR miss ticks (Tick)
board.cache_hierarchy.l1dcaches.WriteReq.mshrMissRate::processor.cores.core.data     0.007663                       # mshr miss rate for WriteReq accesses (Ratio)
board.cache_hierarchy.l1dcaches.WriteReq.mshrMissRate::total     0.007663                       # mshr miss rate for WriteReq accesses (Ratio)
board.cache_hierarchy.l1dcaches.WriteReq.avgMshrMissLatency::processor.cores.core.data 56776.500000                       # average WriteReq mshr miss latency ((Tick/Count))
board.cache_hierarchy.l1dcaches.WriteReq.avgMshrMissLatency::total 56776.500000                       # average WriteReq mshr miss latency ((Tick/Count))
board.cache_hierarchy.l1dcaches.power_state.pwrStateResidencyTicks::UNDEFINED     79215039                       # Cumulative time (in ticks) in various power states (Tick)
board.cache_hierarchy.l1dcaches.prefetcher.demandMshrMisses           24                       # demands not covered by prefetchs (Count)
board.cache_hierarchy.l1dcaches.prefetcher.pfIssued         1865                       # number of hwpf issued (Count)
board.cache_hierarchy.l1dcaches.prefetcher.pfUnused            8                       # number of HardPF blocks evicted w/o reference (Count)
board.cache_hierarchy.l1dcaches.prefetcher.pfUseful          437                       # number of useful prefetch (Count)
board.cache_hierarchy.l1dcaches.prefetcher.pfUsefulButMiss            0                       # number of hit on prefetch but cache block is not in an usable state (Count)
board.cache_hierarchy.l1dcaches.prefetcher.accuracy     0.234316                       # accuracy of the prefetcher (Count)
board.cache_hierarchy.l1dcaches.prefetcher.coverage     0.947939                       # coverage brought by this prefetcher (Count)
board.cache_hierarchy.l1dcaches.prefetcher.pfHitInCache          746                       # number of prefetches hitting in cache (Count)
board.cache_hierarchy.l1dcaches.prefetcher.pfHitInMSHR          635                       # number of prefetches hitting in a MSHR (Count)
board.cache_hierarchy.l1dcaches.prefetcher.pfHitInWB            0                       # number of prefetches hit in the Write Buffer (Count)
board.cache_hierarchy.l1dcaches.prefetcher.pfLate         1381                       # number of late prefetches (hitting in cache, MSHR or WB) (Count)
board.cache_hierarchy.l1dcaches.prefetcher.pfIdentified         1865                       # number of prefetch candidates identified (Count)
board.cache_hierarchy.l1dcaches.prefetcher.pfBufferHit            0                       # number of redundant prefetches already in prefetch queue (Count)
board.cache_hierarchy.l1dcaches.prefetcher.pfInCache            0                       # number of redundant prefetches already in cache/mshr dropped (Count)
board.cache_hierarchy.l1dcaches.prefetcher.pfRemovedDemand            0                       # number of prefetches dropped due to a demand for the same address (Count)
board.cache_hierarchy.l1dcaches.prefetcher.pfRemovedFull            0                       # number of prefetches dropped due to prefetch queue size (Count)
board.cache_hierarchy.l1dcaches.prefetcher.pfSpanPage           71                       # number of prefetches that crossed the page (Count)
board.cache_hierarchy.l1dcaches.prefetcher.pfUsefulSpanPage           66                       # number of prefetches that is useful and crossed the page (Count)
board.cache_hierarchy.l1dcaches.prefetcher.power_state.pwrStateResidencyTicks::UNDEFINED     79215039                       # Cumulative time (in ticks) in various power states (Tick)
board.cache_hierarchy.l1dcaches.tags.tagsInUse          512                       # Average ticks per tags in use ((Tick/Count))
board.cache_hierarchy.l1dcaches.tags.totalRefs         8306                       # Total number of references to valid blocks. (Count)
board.cache_hierarchy.l1dcaches.tags.sampledRefs          508                       # Sample count of references to valid blocks. (Count)
board.cache_hierarchy.l1dcaches.tags.avgRefs    16.350394                       # Average number of references to valid blocks. ((Count/Count))
board.cache_hierarchy.l1dcaches.tags.warmupTick            0                       # The tick when the warmup percentage was hit. (Tick)
board.cache_hierarchy.l1dcaches.tags.occupancies::cache_hierarchy.l1dcaches.prefetcher   497.065674                       # Average occupied blocks per tick, per requestor ((Count/Tick))
board.cache_hierarchy.l1dcaches.tags.occupancies::processor.cores.core.data    14.934326                       # Average occupied blocks per tick, per requestor ((Count/Tick))
board.cache_hierarchy.l1dcaches.tags.avgOccs::cache_hierarchy.l1dcaches.prefetcher     0.970831                       # Average percentage of cache occupancy ((Ratio/Tick))
board.cache_hierarchy.l1dcaches.tags.avgOccs::processor.cores.core.data     0.029169                       # Average percentage of cache occupancy ((Ratio/Tick))
board.cache_hierarchy.l1dcaches.tags.avgOccs::total            1                       # Average percentage of cache occupancy ((Ratio/Tick))
board.cache_hierarchy.l1dcaches.tags.occupanciesTaskId::1022          488                       # Occupied blocks per task id (Count)
board.cache_hierarchy.l1dcaches.tags.occupanciesTaskId::1024           24                       # Occupied blocks per task id (Count)
board.cache_hierarchy.l1dcaches.tags.ageTaskId_1022::0          218                       # Occupied blocks per task id, per block age (Count)
board.cache_hierarchy.l1dcaches.tags.ageTaskId_1022::1          270                       # Occupied blocks per task id, per block age (Count)
board.cache_hierarchy.l1dcaches.tags.ageTaskId_1024::0           14                       # Occupied blocks per task id, per block age (Count)
board.cache_hierarchy.l1dcaches.tags.ageTaskId_1024::1           10                       # Occupied blocks per task id, per block age (Count)
board.cache_hierarchy.l1dcaches.tags.ratioOccsTaskId::1022     0.953125                       # Ratio of occupied blocks and all blocks, per task id (Ratio)
board.cache_hierarchy.l1dcaches.tags.ratioOccsTaskId::1024     0.046875                       # Ratio of occupied blocks and all blocks, per task id (Ratio)
board.cache_hierarchy.l1dcaches.tags.tagAccesses       147284                       # Number of tag accesses (Count)
board.cache_hierarchy.l1dcaches.tags.dataAccesses       147284                       # Number of data accesses (Count)
board.cache_hierarchy.l1dcaches.tags.power_state.pwrStateResidencyTicks::UNDEFINED     79215039                       # Cumulative time (in ticks) in various power states (Tick)
board.cache_hierarchy.l1icaches.demandHits::processor.cores.core.inst        19417                       # number of demand (read+write) hits (Count)
board.cache_hierarchy.l1icaches.demandHits::total        19417                       # number of demand (read+write) hits (Count)
board.cache_hierarchy.l1icaches.overallHits::processor.cores.core.inst        19417                       # number of overall hits (Count)
board.cache_hierarchy.l1icaches.overallHits::total        19417                       # number of overall hits (Count)
board.cache_hierarchy.l1icaches.demandMisses::processor.cores.core.inst           10                       # number of demand (read+write) misses (Count)
board.cache_hierarchy.l1icaches.demandMisses::total           10                       # number of demand (read+write) misses (Count)
board.cache_hierarchy.l1icaches.overallMisses::processor.cores.core.inst           10                       # number of overall misses (Count)
board.cache_hierarchy.l1icaches.overallMisses::total           10                       # number of overall misses (Count)
board.cache_hierarchy.l1icaches.demandMissLatency::processor.cores.core.inst       458541                       # number of demand (read+write) miss ticks (Tick)
board.cache_hierarchy.l1icaches.demandMissLatency::total       458541                       # number of demand (read+write) miss ticks (Tick)
board.cache_hierarchy.l1icaches.overallMissLatency::processor.cores.core.inst       458541                       # number of overall miss ticks (Tick)
board.cache_hierarchy.l1icaches.overallMissLatency::total       458541                       # number of overall miss ticks (Tick)
board.cache_hierarchy.l1icaches.demandAccesses::processor.cores.core.inst        19427                       # number of demand (read+write) accesses (Count)
board.cache_hierarchy.l1icaches.demandAccesses::total        19427                       # number of demand (read+write) accesses (Count)
board.cache_hierarchy.l1icaches.overallAccesses::processor.cores.core.inst        19427                       # number of overall (read+write) accesses (Count)
board.cache_hierarchy.l1icaches.overallAccesses::total        19427                       # number of overall (read+write) accesses (Count)
board.cache_hierarchy.l1icaches.demandMissRate::processor.cores.core.inst     0.000515                       # miss rate for demand accesses (Ratio)
board.cache_hierarchy.l1icaches.demandMissRate::total     0.000515                       # miss rate for demand accesses (Ratio)
board.cache_hierarchy.l1icaches.overallMissRate::processor.cores.core.inst     0.000515                       # miss rate for overall accesses (Ratio)
board.cache_hierarchy.l1icaches.overallMissRate::total     0.000515                       # miss rate for overall accesses (Ratio)
board.cache_hierarchy.l1icaches.demandAvgMissLatency::processor.cores.core.inst 45854.100000                       # average overall miss latency in ticks ((Tick/Count))
board.cache_hierarchy.l1icaches.demandAvgMissLatency::total 45854.100000                       # average overall miss latency in ticks ((Tick/Count))
board.cache_hierarchy.l1icaches.overallAvgMissLatency::processor.cores.core.inst 45854.100000                       # average overall miss latency ((Tick/Count))
board.cache_hierarchy.l1icaches.overallAvgMissLatency::total 45854.100000                       # average overall miss latency ((Tick/Count))
board.cache_hierarchy.l1icaches.blockedCycles::no_mshrs            0                       # number of cycles access was blocked (Cycle)
board.cache_hierarchy.l1icaches.blockedCycles::no_wbuffers            0                       # number of cycles access was blocked (Cycle)
board.cache_hierarchy.l1icaches.blockedCycles::no_targets            0                       # number of cycles access was blocked (Cycle)
board.cache_hierarchy.l1icaches.blockedCauses::no_mshrs            0                       # number of times access was blocked (Count)
board.cache_hierarchy.l1icaches.blockedCauses::no_wbuffers            0                       # number of times access was blocked (Count)
board.cache_hierarchy.l1icaches.blockedCauses::no_targets            0                       # number of times access was blocked (Count)
board.cache_hierarchy.l1icaches.avgBlocked::no_mshrs          nan                       # average number of cycles each access was blocked ((Cycle/Count))
board.cache_hierarchy.l1icaches.avgBlocked::no_wbuffers          nan                       # average number of cycles each access was blocked ((Cycle/Count))
board.cache_hierarchy.l1icaches.avgBlocked::no_targets          nan                       # average number of cycles each access was blocked ((Cycle/Count))
board.cache_hierarchy.l1icaches.demandMshrMisses::processor.cores.core.inst           10                       # number of demand (read+write) MSHR misses (Count)
board.cache_hierarchy.l1icaches.demandMshrMisses::total           10                       # number of demand (read+write) MSHR misses (Count)
board.cache_hierarchy.l1icaches.overallMshrMisses::processor.cores.core.inst           10                       # number of overall MSHR misses (Count)
board.cache_hierarchy.l1icaches.overallMshrMisses::total           10                       # number of overall MSHR misses (Count)
board.cache_hierarchy.l1icaches.demandMshrMissLatency::processor.cores.core.inst       455211                       # number of demand (read+write) MSHR miss ticks (Tick)
board.cache_hierarchy.l1icaches.demandMshrMissLatency::total       455211                       # number of demand (read+write) MSHR miss ticks (Tick)
board.cache_hierarchy.l1icaches.overallMshrMissLatency::processor.cores.core.inst       455211                       # number of overall MSHR miss ticks (Tick)
board.cache_hierarchy.l1icaches.overallMshrMissLatency::total       455211                       # number of overall MSHR miss ticks (Tick)
board.cache_hierarchy.l1icaches.demandMshrMissRate::processor.cores.core.inst     0.000515                       # mshr miss ratio for demand accesses (Ratio)
board.cache_hierarchy.l1icaches.demandMshrMissRate::total     0.000515                       # mshr miss ratio for demand accesses (Ratio)
board.cache_hierarchy.l1icaches.overallMshrMissRate::processor.cores.core.inst     0.000515                       # mshr miss ratio for overall accesses (Ratio)
board.cache_hierarchy.l1icaches.overallMshrMissRate::total     0.000515                       # mshr miss ratio for overall accesses (Ratio)
board.cache_hierarchy.l1icaches.demandAvgMshrMissLatency::processor.cores.core.inst 45521.100000                       # average overall mshr miss latency ((Tick/Count))
board.cache_hierarchy.l1icaches.demandAvgMshrMissLatency::total 45521.100000                       # average overall mshr miss latency ((Tick/Count))
board.cache_hierarchy.l1icaches.overallAvgMshrMissLatency::processor.cores.core.inst 45521.100000                       # average overall mshr miss latency ((Tick/Count))
board.cache_hierarchy.l1icaches.overallAvgMshrMissLatency::total 45521.100000                       # average overall mshr miss latency ((Tick/Count))
board.cache_hierarchy.l1icaches.replacements            0                       # number of replacements (Count)
board.cache_hierarchy.l1icaches.ReadReq.hits::processor.cores.core.inst        19417                       # number of ReadReq hits (Count)
board.cache_hierarchy.l1icaches.ReadReq.hits::total        19417                       # number of ReadReq hits (Count)
board.cache_hierarchy.l1icaches.ReadReq.misses::processor.cores.core.inst           10                       # number of ReadReq misses (Count)
board.cache_hierarchy.l1icaches.ReadReq.misses::total           10                       # number of ReadReq misses (Count)
board.cache_hierarchy.l1icaches.ReadReq.missLatency::processor.cores.core.inst       458541                       # number of ReadReq miss ticks (Tick)
board.cache_hierarchy.l1icaches.ReadReq.missLatency::total       458541                       # number of ReadReq miss ticks (Tick)
board.cache_hierarchy.l1icaches.ReadReq.accesses::processor.cores.core.inst        19427                       # number of ReadReq accesses(hits+misses) (Count)
board.cache_hierarchy.l1icaches.ReadReq.accesses::total        19427                       # number of ReadReq accesses(hits+misses) (Count)
board.cache_hierarchy.l1icaches.ReadReq.missRate::processor.cores.core.inst     0.000515                       # miss rate for ReadReq accesses (Ratio)
board.cache_hierarchy.l1icaches.ReadReq.missRate::total     0.000515                       # miss rate for ReadReq accesses (Ratio)
board.cache_hierarchy.l1icaches.ReadReq.avgMissLatency::processor.cores.core.inst 45854.100000                       # average ReadReq miss latency ((Tick/Count))
board.cache_hierarchy.l1icaches.ReadReq.avgMissLatency::total 45854.100000                       # average ReadReq miss latency ((Tick/Count))
board.cache_hierarchy.l1icaches.ReadReq.mshrMisses::processor.cores.core.inst           10                       # number of ReadReq MSHR misses (Count)
board.cache_hierarchy.l1icaches.ReadReq.mshrMisses::total           10                       # number of ReadReq MSHR misses (Count)
board.cache_hierarchy.l1icaches.ReadReq.mshrMissLatency::processor.cores.core.inst       455211                       # number of ReadReq MSHR miss ticks (Tick)
board.cache_hierarchy.l1icaches.ReadReq.mshrMissLatency::total       455211                       # number of ReadReq MSHR miss ticks (Tick)
board.cache_hierarchy.l1icaches.ReadReq.mshrMissRate::processor.cores.core.inst     0.000515                       # mshr miss rate for ReadReq accesses (Ratio)
board.cache_hierarchy.l1icaches.ReadReq.mshrMissRate::total     0.000515                       # mshr miss rate for ReadReq accesses (Ratio)
board.cache_hierarchy.l1icaches.ReadReq.avgMshrMissLatency::processor.cores.core.inst 45521.100000                       # average ReadReq mshr miss latency ((Tick/Count))
board.cache_hierarchy.l1icaches.ReadReq.avgMshrMissLatency::total 45521.100000                       # average ReadReq mshr miss latency ((Tick/Count))
board.cache_hierarchy.l1icaches.power_state.pwrStateResidencyTicks::UNDEFINED     79215039                       # Cumulative time (in ticks) in various power states (Tick)
board.cache_hierarchy.l1icaches.prefetcher.demandMshrMisses           10                       # demands not covered by prefetchs (Count)
board.cache_hierarchy.l1icaches.prefetcher.pfIssued            0                       # number of hwpf issued (Count)
board.cache_hierarchy.l1icaches.prefetcher.pfUseful            0                       # number of useful prefetch (Count)
board.cache_hierarchy.l1icaches.prefetcher.pfUsefulButMiss            0                       # number of hit on prefetch but cache block is not in an usable state (Count)
board.cache_hierarchy.l1icaches.prefetcher.accuracy          nan                       # accuracy of the prefetcher (Count)
board.cache_hierarchy.l1icaches.prefetcher.coverage            0                       # coverage brought by this prefetcher (Count)
board.cache_hierarchy.l1icaches.prefetcher.pfHitInCache            0                       # number of prefetches hitting in cache (Count)
board.cache_hierarchy.l1icaches.prefetcher.pfHitInMSHR            0                       # number of prefetches hitting in a MSHR (Count)
board.cache_hierarchy.l1icaches.prefetcher.pfHitInWB            0                       # number of prefetches hit in the Write Buffer (Count)
board.cache_hierarchy.l1icaches.prefetcher.pfLate            0                       # number of late prefetches (hitting in cache, MSHR or WB) (Count)
board.cache_hierarchy.l1icaches.prefetcher.pfIdentified            0                       # number of prefetch candidates identified (Count)
board.cache_hierarchy.l1icaches.prefetcher.pfBufferHit            0                       # number of redundant prefetches already in prefetch queue (Count)
board.cache_hierarchy.l1icaches.prefetcher.pfInCache            0                       # number of redundant prefetches already in cache/mshr dropped (Count)
board.cache_hierarchy.l1icaches.prefetcher.pfRemovedDemand            0                       # number of prefetches dropped due to a demand for the same address (Count)
board.cache_hierarchy.l1icaches.prefetcher.pfRemovedFull            0                       # number of prefetches dropped due to prefetch queue size (Count)
board.cache_hierarchy.l1icaches.prefetcher.pfSpanPage            0                       # number of prefetches that crossed the page (Count)
board.cache_hierarchy.l1icaches.prefetcher.pfUsefulSpanPage            0                       # number of prefetches that is useful and crossed the page (Count)
board.cache_hierarchy.l1icaches.prefetcher.power_state.pwrStateResidencyTicks::UNDEFINED     79215039                       # Cumulative time (in ticks) in various power states (Tick)
board.cache_hierarchy.l1icaches.tags.tagsInUse   264.724428                       # Average ticks per tags in use ((Tick/Count))
board.cache_hierarchy.l1icaches.tags.totalRefs            0                       # Total number of references to valid blocks. (Count)
board.cache_hierarchy.l1icaches.tags.sampledRefs            0                       # Sample count of references to valid blocks. (Count)
board.cache_hierarchy.l1icaches.tags.avgRefs          nan                       # Average number of references to valid blocks. ((Count/Count))
board.cache_hierarchy.l1icaches.tags.warmupTick            0                       # The tick when the warmup percentage was hit. (Tick)
board.cache_hierarchy.l1icaches.tags.occupancies::processor.cores.core.inst   264.724428                       # Average occupied blocks per tick, per requestor ((Count/Tick))
board.cache_hierarchy.l1icaches.tags.avgOccs::processor.cores.core.inst     0.517040                       # Average percentage of cache occupancy ((Ratio/Tick))
board.cache_hierarchy.l1icaches.tags.avgOccs::total     0.517040                       # Average percentage of cache occupancy ((Ratio/Tick))
board.cache_hierarchy.l1icaches.tags.occupanciesTaskId::1024          271                       # Occupied blocks per task id (Count)
board.cache_hierarchy.l1icaches.tags.ageTaskId_1024::0            7                       # Occupied blocks per task id, per block age (Count)
board.cache_hierarchy.l1icaches.tags.ageTaskId_1024::1          264                       # Occupied blocks per task id, per block age (Count)
board.cache_hierarchy.l1icaches.tags.ratioOccsTaskId::1024     0.529297                       # Ratio of occupied blocks and all blocks, per task id (Ratio)
board.cache_hierarchy.l1icaches.tags.tagAccesses       155426                       # Number of tag accesses (Count)
board.cache_hierarchy.l1icaches.tags.dataAccesses       155426                       # Number of data accesses (Count)
board.cache_hierarchy.l1icaches.tags.power_state.pwrStateResidencyTicks::UNDEFINED     79215039                       # Cumulative time (in ticks) in various power states (Tick)
board.cache_hierarchy.membus.transDist::ReadResp          514                       # Transaction distribution (Count)
board.cache_hierarchy.membus.transDist::WritebackDirty          463                       # Transaction distribution (Count)
board.cache_hierarchy.membus.transDist::CleanEvict           45                       # Transaction distribution (Count)
board.cache_hierarchy.membus.transDist::ReadExReq            4                       # Transaction distribution (Count)
board.cache_hierarchy.membus.transDist::ReadExResp            4                       # Transaction distribution (Count)
board.cache_hierarchy.membus.transDist::ReadSharedReq          514                       # Transaction distribution (Count)
board.cache_hierarchy.membus.pktCount_board.cache_hierarchy.l1icaches.mem_side_port::board.memory.mem_ctrl.port           20                       # Packet count per connected requestor and responder (Count)
board.cache_hierarchy.membus.pktCount_board.cache_hierarchy.l1icaches.mem_side_port::total           20                       # Packet count per connected requestor and responder (Count)
board.cache_hierarchy.membus.pktCount_board.cache_hierarchy.l1dcaches.mem_side_port::board.memory.mem_ctrl.port         1524                       # Packet count per connected requestor and responder (Count)
board.cache_hierarchy.membus.pktCount_board.cache_hierarchy.l1dcaches.mem_side_port::total         1524                       # Packet count per connected requestor and responder (Count)
board.cache_hierarchy.membus.pktCount::total         1544                       # Packet count per connected requestor and responder (Count)
board.cache_hierarchy.membus.pktSize_board.cache_hierarchy.l1icaches.mem_side_port::board.memory.mem_ctrl.port          640                       # Cumulative packet size per connected requestor and responder (Byte)
board.cache_hierarchy.membus.pktSize_board.cache_hierarchy.l1icaches.mem_side_port::total          640                       # Cumulative packet size per connected requestor and responder (Byte)
board.cache_hierarchy.membus.pktSize_board.cache_hierarchy.l1dcaches.mem_side_port::board.memory.mem_ctrl.port        62144                       # Cumulative packet size per connected requestor and responder (Byte)
board.cache_hierarchy.membus.pktSize_board.cache_hierarchy.l1dcaches.mem_side_port::total        62144                       # Cumulative packet size per connected requestor and responder (Byte)
board.cache_hierarchy.membus.pktSize::total        62784                       # Cumulative packet size per connected requestor and responder (Byte)
board.cache_hierarchy.membus.snoops                 0                       # Total snoops (Count)
board.cache_hierarchy.membus.snoopTraffic            0                       # Total snoop traffic (Byte)
board.cache_hierarchy.membus.snoopFanout::samples          518                       # Request fanout histogram (Count)
board.cache_hierarchy.membus.snoopFanout::mean            0                       # Request fanout histogram (Count)
board.cache_hierarchy.membus.snoopFanout::stdev            0                       # Request fanout histogram (Count)
board.cache_hierarchy.membus.snoopFanout::underflows            0      0.00%      0.00% # Request fanout histogram (Count)
board.cache_hierarchy.membus.snoopFanout::0          518    100.00%    100.00% # Request fanout histogram (Count)
board.cache_hierarchy.membus.snoopFanout::1            0      0.00%    100.00% # Request fanout histogram (Count)
board.cache_hierarchy.membus.snoopFanout::2            0      0.00%    100.00% # Request fanout histogram (Count)
board.cache_hierarchy.membus.snoopFanout::overflows            0      0.00%    100.00% # Request fanout histogram (Count)
board.cache_hierarchy.membus.snoopFanout::min_value            0                       # Request fanout histogram (Count)
board.cache_hierarchy.membus.snoopFanout::max_value            0                       # Request fanout histogram (Count)
board.cache_hierarchy.membus.snoopFanout::total          518                       # Request fanout histogram (Count)
board.cache_hierarchy.membus.badaddr_responder.power_state.pwrStateResidencyTicks::UNDEFINED     79215039                       # Cumulative time (in ticks) in various power states (Tick)
board.cache_hierarchy.membus.power_state.pwrStateResidencyTicks::UNDEFINED     79215039                       # Cumulative time (in ticks) in various power states (Tick)
board.cache_hierarchy.membus.reqLayer0.occupancy       637409                       # Layer occupancy (ticks) (Tick)
board.cache_hierarchy.membus.reqLayer0.utilization          0.0                       # Layer utilization (Ratio)
board.cache_hierarchy.membus.respLayer1.occupancy         8571                       # Layer occupancy (ticks) (Tick)
board.cache_hierarchy.membus.respLayer1.utilization          0.0                       # Layer utilization (Ratio)
board.cache_hierarchy.membus.respLayer2.occupancy       431543                       # Layer occupancy (ticks) (Tick)
board.cache_hierarchy.membus.respLayer2.utilization          0.0                       # Layer utilization (Ratio)
board.cache_hierarchy.membus.snoop_filter.totRequests         1026                       # Total number of requests made to the snoop filter. (Count)
board.cache_hierarchy.membus.snoop_filter.hitSingleRequests          508                       # Number of requests hitting in the snoop filter with a single holder of the requested data. (Count)
board.cache_hierarchy.membus.snoop_filter.hitMultiRequests            0                       # Number of requests hitting in the snoop filter with multiple (>1) holders of the requested data. (Count)
board.cache_hierarchy.membus.snoop_filter.totSnoops            0                       # Total number of snoops made to the snoop filter. (Count)
board.cache_hierarchy.membus.snoop_filter.hitSingleSnoops            0                       # Number of snoops hitting in the snoop filter with a single holder of the requested data. (Count)
board.cache_hierarchy.membus.snoop_filter.hitMultiSnoops            0                       # Number of snoops hitting in the snoop filter with multiple (>1) holders of the requested data. (Count)
board.clk_domain.clock                            333                       # Clock period in ticks (Tick)
board.clk_domain.voltage_domain.voltage             1                       # Voltage in Volts (Volt)
board.memory.mem_ctrl.avgPriority_writebacks::samples       463.00                       # Average QoS priority value for accepted requests (Count)
board.memory.mem_ctrl.avgPriority_cache_hierarchy.l1dcaches.prefetcher::samples       478.00                       # Average QoS priority value for accepted requests (Count)
board.memory.mem_ctrl.avgPriority_processor.cores.core.inst::samples        10.00                       # Average QoS priority value for accepted requests (Count)
board.memory.mem_ctrl.avgPriority_processor.cores.core.data::samples        23.00                       # Average QoS priority value for accepted requests (Count)
board.memory.mem_ctrl.priorityMinLatency 0.000000018750                       # per QoS priority minimum request to response latency (Second)
board.memory.mem_ctrl.priorityMaxLatency 0.000003440422                       # per QoS priority maximum request to response latency (Second)
board.memory.mem_ctrl.numReadWriteTurnArounds           28                       # Number of turnarounds from READ to WRITE (Count)
board.memory.mem_ctrl.numWriteReadTurnArounds           28                       # Number of turnarounds from WRITE to READ (Count)
board.memory.mem_ctrl.numStayReadState           1356                       # Number of times bus staying in READ state (Count)
board.memory.mem_ctrl.numStayWriteState           423                       # Number of times bus staying in WRITE state (Count)
board.memory.mem_ctrl.readReqs                    518                       # Number of read requests accepted (Count)
board.memory.mem_ctrl.writeReqs                   463                       # Number of write requests accepted (Count)
board.memory.mem_ctrl.readBursts                  518                       # Number of controller read bursts, including those serviced by the write queue (Count)
board.memory.mem_ctrl.writeBursts                 463                       # Number of controller write bursts, including those merged in the write queue (Count)
board.memory.mem_ctrl.servicedByWrQ                 7                       # Number of controller read bursts serviced by the write queue (Count)
board.memory.mem_ctrl.mergedWrBursts                0                       # Number of controller write bursts merged with an existing one (Count)
board.memory.mem_ctrl.neitherReadNorWriteReqs            0                       # Number of requests that are neither read nor write (Count)
board.memory.mem_ctrl.avgRdQLen                  2.04                       # Average read queue length when enqueuing ((Count/Tick))
board.memory.mem_ctrl.avgWrQLen                 26.78                       # Average write queue length when enqueuing ((Count/Tick))
board.memory.mem_ctrl.numRdRetry                    0                       # Number of times read queue was full causing retry (Count)
board.memory.mem_ctrl.numWrRetry                    0                       # Number of times write queue was full causing retry (Count)
board.memory.mem_ctrl.readPktSize::0                0                       # Read request sizes (log2) (Count)
board.memory.mem_ctrl.readPktSize::1                0                       # Read request sizes (log2) (Count)
board.memory.mem_ctrl.readPktSize::2                0                       # Read request sizes (log2) (Count)
board.memory.mem_ctrl.readPktSize::3                0                       # Read request sizes (log2) (Count)
board.memory.mem_ctrl.readPktSize::4                0                       # Read request sizes (log2) (Count)
board.memory.mem_ctrl.readPktSize::5                0                       # Read request sizes (log2) (Count)
board.memory.mem_ctrl.readPktSize::6              518                       # Read request sizes (log2) (Count)
board.memory.mem_ctrl.writePktSize::0               0                       # Write request sizes (log2) (Count)
board.memory.mem_ctrl.writePktSize::1               0                       # Write request sizes (log2) (Count)
board.memory.mem_ctrl.writePktSize::2               0                       # Write request sizes (log2) (Count)
board.memory.mem_ctrl.writePktSize::3               0                       # Write request sizes (log2) (Count)
board.memory.mem_ctrl.writePktSize::4               0                       # Write request sizes (log2) (Count)
board.memory.mem_ctrl.writePktSize::5               0                       # Write request sizes (log2) (Count)
board.memory.mem_ctrl.writePktSize::6             463                       # Write request sizes (log2) (Count)
board.memory.mem_ctrl.rdQLenPdf::0                269                       # What read queue length does an incoming req see (Count)
board.memory.mem_ctrl.rdQLenPdf::1                127                       # What read queue length does an incoming req see (Count)
board.memory.mem_ctrl.rdQLenPdf::2                 43                       # What read queue length does an incoming req see (Count)
board.memory.mem_ctrl.rdQLenPdf::3                 43                       # What read queue length does an incoming req see (Count)
board.memory.mem_ctrl.rdQLenPdf::4                 24                       # What read queue length does an incoming req see (Count)
board.memory.mem_ctrl.rdQLenPdf::5                  1                       # What read queue length does an incoming req see (Count)
board.memory.mem_ctrl.rdQLenPdf::6                  2                       # What read queue length does an incoming req see (Count)
board.memory.mem_ctrl.rdQLenPdf::7                  1                       # What read queue length does an incoming req see (Count)
board.memory.mem_ctrl.rdQLenPdf::8                  1                       # What read queue length does an incoming req see (Count)
board.memory.mem_ctrl.rdQLenPdf::9                  0                       # What read queue length does an incoming req see (Count)
board.memory.mem_ctrl.rdQLenPdf::10                 0                       # What read queue length does an incoming req see (Count)
board.memory.mem_ctrl.rdQLenPdf::11                 0                       # What read queue length does an incoming req see (Count)
board.memory.mem_ctrl.rdQLenPdf::12                 0                       # What read queue length does an incoming req see (Count)
board.memory.mem_ctrl.rdQLenPdf::13                 0                       # What read queue length does an incoming req see (Count)
board.memory.mem_ctrl.rdQLenPdf::14                 0                       # What read queue length does an incoming req see (Count)
board.memory.mem_ctrl.rdQLenPdf::15                 0                       # What read queue length does an incoming req see (Count)
board.memory.mem_ctrl.rdQLenPdf::16                 0                       # What read queue length does an incoming req see (Count)
board.memory.mem_ctrl.rdQLenPdf::17                 0                       # What read queue length does an incoming req see (Count)
board.memory.mem_ctrl.rdQLenPdf::18                 0                       # What read queue length does an incoming req see (Count)
board.memory.mem_ctrl.rdQLenPdf::19                 0                       # What read queue length does an incoming req see (Count)
board.memory.mem_ctrl.rdQLenPdf::20                 0                       # What read queue length does an incoming req see (Count)
board.memory.mem_ctrl.rdQLenPdf::21                 0                       # What read queue length does an incoming req see (Count)
board.memory.mem_ctrl.rdQLenPdf::22                 0                       # What read queue length does an incoming req see (Count)
board.memory.mem_ctrl.rdQLenPdf::23                 0                       # What read queue length does an incoming req see (Count)
board.memory.mem_ctrl.rdQLenPdf::24                 0                       # What read queue length does an incoming req see (Count)
board.memory.mem_ctrl.rdQLenPdf::25                 0                       # What read queue length does an incoming req see (Count)
board.memory.mem_ctrl.rdQLenPdf::26                 0                       # What read queue length does an incoming req see (Count)
board.memory.mem_ctrl.rdQLenPdf::27                 0                       # What read queue length does an incoming req see (Count)
board.memory.mem_ctrl.rdQLenPdf::28                 0                       # What read queue length does an incoming req see (Count)
board.memory.mem_ctrl.rdQLenPdf::29                 0                       # What read queue length does an incoming req see (Count)
board.memory.mem_ctrl.rdQLenPdf::30                 0                       # What read queue length does an incoming req see (Count)
board.memory.mem_ctrl.rdQLenPdf::31                 0                       # What read queue length does an incoming req see (Count)
board.memory.mem_ctrl.wrQLenPdf::0                  0                       # What write queue length does an incoming req see (Count)
board.memory.mem_ctrl.wrQLenPdf::1                  0                       # What write queue length does an incoming req see (Count)
board.memory.mem_ctrl.wrQLenPdf::2                  0                       # What write queue length does an incoming req see (Count)
board.memory.mem_ctrl.wrQLenPdf::3                  0                       # What write queue length does an incoming req see (Count)
board.memory.mem_ctrl.wrQLenPdf::4                  0                       # What write queue length does an incoming req see (Count)
board.memory.mem_ctrl.wrQLenPdf::5                  0                       # What write queue length does an incoming req see (Count)
board.memory.mem_ctrl.wrQLenPdf::6                  0                       # What write queue length does an incoming req see (Count)
board.memory.mem_ctrl.wrQLenPdf::7                  0                       # What write queue length does an incoming req see (Count)
board.memory.mem_ctrl.wrQLenPdf::8                  0                       # What write queue length does an incoming req see (Count)
board.memory.mem_ctrl.wrQLenPdf::9                  0                       # What write queue length does an incoming req see (Count)
board.memory.mem_ctrl.wrQLenPdf::10                 0                       # What write queue length does an incoming req see (Count)
board.memory.mem_ctrl.wrQLenPdf::11                 0                       # What write queue length does an incoming req see (Count)
board.memory.mem_ctrl.wrQLenPdf::12                 0                       # What write queue length does an incoming req see (Count)
board.memory.mem_ctrl.wrQLenPdf::13                 0                       # What write queue length does an incoming req see (Count)
board.memory.mem_ctrl.wrQLenPdf::14                 0                       # What write queue length does an incoming req see (Count)
board.memory.mem_ctrl.wrQLenPdf::15                 1                       # What write queue length does an incoming req see (Count)
board.memory.mem_ctrl.wrQLenPdf::16                 1                       # What write queue length does an incoming req see (Count)
board.memory.mem_ctrl.wrQLenPdf::17                 2                       # What write queue length does an incoming req see (Count)
board.memory.mem_ctrl.wrQLenPdf::18                27                       # What write queue length does an incoming req see (Count)
board.memory.mem_ctrl.wrQLenPdf::19                28                       # What write queue length does an incoming req see (Count)
board.memory.mem_ctrl.wrQLenPdf::20                30                       # What write queue length does an incoming req see (Count)
board.memory.mem_ctrl.wrQLenPdf::21                35                       # What write queue length does an incoming req see (Count)
board.memory.mem_ctrl.wrQLenPdf::22                30                       # What write queue length does an incoming req see (Count)
board.memory.mem_ctrl.wrQLenPdf::23                37                       # What write queue length does an incoming req see (Count)
board.memory.mem_ctrl.wrQLenPdf::24                37                       # What write queue length does an incoming req see (Count)
board.memory.mem_ctrl.wrQLenPdf::25                31                       # What write queue length does an incoming req see (Count)
board.memory.mem_ctrl.wrQLenPdf::26                33                       # What write queue length does an incoming req see (Count)
board.memory.mem_ctrl.wrQLenPdf::27                30                       # What write queue length does an incoming req see (Count)
board.memory.mem_ctrl.wrQLenPdf::28                29                       # What write queue length does an incoming req see (Count)
board.memory.mem_ctrl.wrQLenPdf::29                28                       # What write queue length does an incoming req see (Count)
board.memory.mem_ctrl.wrQLenPdf::30                28                       # What write queue length does an incoming req see (Count)
board.memory.mem_ctrl.wrQLenPdf::31                28                       # What write queue length does an incoming req see (Count)
board.memory.mem_ctrl.wrQLenPdf::32                28                       # What write queue length does an incoming req see (Count)
board.memory.mem_ctrl.wrQLenPdf::33                 0                       # What write queue length does an incoming req see (Count)
board.memory.mem_ctrl.wrQLenPdf::34                 0                       # What write queue length does an incoming req see (Count)
board.memory.mem_ctrl.wrQLenPdf::35                 0                       # What write queue length does an incoming req see (Count)
board.memory.mem_ctrl.wrQLenPdf::36                 0                       # What write queue length does an incoming req see (Count)
board.memory.mem_ctrl.wrQLenPdf::37                 0                       # What write queue length does an incoming req see (Count)
board.memory.mem_ctrl.wrQLenPdf::38                 0                       # What write queue length does an incoming req see (Count)
board.memory.mem_ctrl.wrQLenPdf::39                 0                       # What write queue length does an incoming req see (Count)
board.memory.mem_ctrl.wrQLenPdf::40                 0                       # What write queue length does an incoming req see (Count)
board.memory.mem_ctrl.wrQLenPdf::41                 0                       # What write queue length does an incoming req see (Count)
board.memory.mem_ctrl.wrQLenPdf::42                 0                       # What write queue length does an incoming req see (Count)
board.memory.mem_ctrl.wrQLenPdf::43                 0                       # What write queue length does an incoming req see (Count)
board.memory.mem_ctrl.wrQLenPdf::44                 0                       # What write queue length does an incoming req see (Count)
board.memory.mem_ctrl.wrQLenPdf::45                 0                       # What write queue length does an incoming req see (Count)
board.memory.mem_ctrl.wrQLenPdf::46                 0                       # What write queue length does an incoming req see (Count)
board.memory.mem_ctrl.wrQLenPdf::47                 0                       # What write queue length does an incoming req see (Count)
board.memory.mem_ctrl.wrQLenPdf::48                 0                       # What write queue length does an incoming req see (Count)
board.memory.mem_ctrl.wrQLenPdf::49                 0                       # What write queue length does an incoming req see (Count)
board.memory.mem_ctrl.wrQLenPdf::50                 0                       # What write queue length does an incoming req see (Count)
board.memory.mem_ctrl.wrQLenPdf::51                 0                       # What write queue length does an incoming req see (Count)
board.memory.mem_ctrl.wrQLenPdf::52                 0                       # What write queue length does an incoming req see (Count)
board.memory.mem_ctrl.wrQLenPdf::53                 0                       # What write queue length does an incoming req see (Count)
board.memory.mem_ctrl.wrQLenPdf::54                 0                       # What write queue length does an incoming req see (Count)
board.memory.mem_ctrl.wrQLenPdf::55                 0                       # What write queue length does an incoming req see (Count)
board.memory.mem_ctrl.wrQLenPdf::56                 0                       # What write queue length does an incoming req see (Count)
board.memory.mem_ctrl.wrQLenPdf::57                 0                       # What write queue length does an incoming req see (Count)
board.memory.mem_ctrl.wrQLenPdf::58                 0                       # What write queue length does an incoming req see (Count)
board.memory.mem_ctrl.wrQLenPdf::59                 0                       # What write queue length does an incoming req see (Count)
board.memory.mem_ctrl.wrQLenPdf::60                 0                       # What write queue length does an incoming req see (Count)
board.memory.mem_ctrl.wrQLenPdf::61                 0                       # What write queue length does an incoming req see (Count)
board.memory.mem_ctrl.wrQLenPdf::62                 0                       # What write queue length does an incoming req see (Count)
board.memory.mem_ctrl.wrQLenPdf::63                 0                       # What write queue length does an incoming req see (Count)
board.memory.mem_ctrl.rdPerTurnAround::samples           28                       # Reads before turning the bus around for writes (Count)
board.memory.mem_ctrl.rdPerTurnAround::mean    16.428571                       # Reads before turning the bus around for writes (Count)
board.memory.mem_ctrl.rdPerTurnAround::gmean    16.370201                       # Reads before turning the bus around for writes (Count)
board.memory.mem_ctrl.rdPerTurnAround::stdev     1.451144                       # Reads before turning the bus around for writes (Count)
board.memory.mem_ctrl.rdPerTurnAround::13            1      3.57%      3.57% # Reads before turning the bus around for writes (Count)
board.memory.mem_ctrl.rdPerTurnAround::16           22     78.57%     82.14% # Reads before turning the bus around for writes (Count)
board.memory.mem_ctrl.rdPerTurnAround::17            1      3.57%     85.71% # Reads before turning the bus around for writes (Count)
board.memory.mem_ctrl.rdPerTurnAround::19            3     10.71%     96.43% # Reads before turning the bus around for writes (Count)
board.memory.mem_ctrl.rdPerTurnAround::21            1      3.57%    100.00% # Reads before turning the bus around for writes (Count)
board.memory.mem_ctrl.rdPerTurnAround::total           28                       # Reads before turning the bus around for writes (Count)
board.memory.mem_ctrl.wrPerTurnAround::samples           28                       # Writes before turning the bus around for reads (Count)
board.memory.mem_ctrl.wrPerTurnAround::mean    16.107143                       # Writes before turning the bus around for reads (Count)
board.memory.mem_ctrl.wrPerTurnAround::gmean    16.098502                       # Writes before turning the bus around for reads (Count)
board.memory.mem_ctrl.wrPerTurnAround::stdev     0.566947                       # Writes before turning the bus around for reads (Count)
board.memory.mem_ctrl.wrPerTurnAround::16           27     96.43%     96.43% # Writes before turning the bus around for reads (Count)
board.memory.mem_ctrl.wrPerTurnAround::19            1      3.57%    100.00% # Writes before turning the bus around for reads (Count)
board.memory.mem_ctrl.wrPerTurnAround::total           28                       # Writes before turning the bus around for reads (Count)
board.memory.mem_ctrl.bytesReadWrQ                448                       # Total number of bytes read from write queue (Byte)
board.memory.mem_ctrl.bytesReadSys              33152                       # Total read bytes from the system interface side (Byte)
board.memory.mem_ctrl.bytesWrittenSys           29632                       # Total written bytes from the system interface side (Byte)
board.memory.mem_ctrl.avgRdBWSys         1852196382.42894077                       # Average system read bandwidth in Byte/s ((Byte/Second))
board.memory.mem_ctrl.avgWrBWSys         1655534604.37181377                       # Average system write bandwidth in Byte/s ((Byte/Second))
board.memory.mem_ctrl.totGap                 17948034                       # Total gap between requests (Tick)
board.memory.mem_ctrl.avgGap                 18295.65                       # Average gap between requests ((Tick/Count))
board.memory.mem_ctrl.requestorReadBytes::cache_hierarchy.l1dcaches.prefetcher        30592                       # Per-requestor bytes read from memory (Byte)
board.memory.mem_ctrl.requestorReadBytes::processor.cores.core.inst          640                       # Per-requestor bytes read from memory (Byte)
board.memory.mem_ctrl.requestorReadBytes::processor.cores.core.data         1472                       # Per-requestor bytes read from memory (Byte)
board.memory.mem_ctrl.requestorWriteBytes::writebacks        28864                       # Per-requestor bytes write to memory (Byte)
board.memory.mem_ctrl.requestorReadRate::cache_hierarchy.l1dcaches.prefetcher 1709169634.751030206680                       # Per-requestor bytes read from memory rate ((Byte/Second))
board.memory.mem_ctrl.requestorReadRate::processor.cores.core.inst 35756686.919477619231                       # Per-requestor bytes read from memory rate ((Byte/Second))
board.memory.mem_ctrl.requestorReadRate::processor.cores.core.data 82240379.914798527956                       # Per-requestor bytes read from memory rate ((Byte/Second))
board.memory.mem_ctrl.requestorWriteRate::writebacks 1612626580.068440675735                       # Per-requestor bytes write to memory rate ((Byte/Second))
board.memory.mem_ctrl.requestorReadAccesses::cache_hierarchy.l1dcaches.prefetcher          484                       # Per-requestor read serviced memory accesses (Count)
board.memory.mem_ctrl.requestorReadAccesses::processor.cores.core.inst           10                       # Per-requestor read serviced memory accesses (Count)
board.memory.mem_ctrl.requestorReadAccesses::processor.cores.core.data           24                       # Per-requestor read serviced memory accesses (Count)
board.memory.mem_ctrl.requestorWriteAccesses::writebacks          463                       # Per-requestor write serviced memory accesses (Count)
board.memory.mem_ctrl.requestorReadTotalLat::cache_hierarchy.l1dcaches.prefetcher     19554387                       # Per-requestor read total memory access latency (Tick)
board.memory.mem_ctrl.requestorReadTotalLat::processor.cores.core.inst       216670                       # Per-requestor read total memory access latency (Tick)
board.memory.mem_ctrl.requestorReadTotalLat::processor.cores.core.data       589707                       # Per-requestor read total memory access latency (Tick)
board.memory.mem_ctrl.requestorWriteTotalLat::writebacks    342165804                       # Per-requestor write total memory access latency (Tick)
board.memory.mem_ctrl.requestorReadAvgLat::cache_hierarchy.l1dcaches.prefetcher     40401.63                       # Per-requestor read average memory access latency ((Tick/Count))
board.memory.mem_ctrl.requestorReadAvgLat::processor.cores.core.inst     21667.00                       # Per-requestor read average memory access latency ((Tick/Count))
board.memory.mem_ctrl.requestorReadAvgLat::processor.cores.core.data     24571.12                       # Per-requestor read average memory access latency ((Tick/Count))
board.memory.mem_ctrl.requestorWriteAvgLat::writebacks    739019.02                       # Per-requestor write average memory access latency ((Tick/Count))
board.memory.mem_ctrl.dram.bytesRead::cache_hierarchy.l1dcaches.prefetcher        30976                       # Number of bytes read from this memory (Byte)
board.memory.mem_ctrl.dram.bytesRead::processor.cores.core.inst          640                       # Number of bytes read from this memory (Byte)
board.memory.mem_ctrl.dram.bytesRead::processor.cores.core.data         1536                       # Number of bytes read from this memory (Byte)
board.memory.mem_ctrl.dram.bytesRead::total        33152                       # Number of bytes read from this memory (Byte)
board.memory.mem_ctrl.dram.bytesInstRead::processor.cores.core.inst          640                       # Number of instructions bytes read from this memory (Byte)
board.memory.mem_ctrl.dram.bytesInstRead::total          640                       # Number of instructions bytes read from this memory (Byte)
board.memory.mem_ctrl.dram.bytesWritten::writebacks        29632                       # Number of bytes written to this memory (Byte)
board.memory.mem_ctrl.dram.bytesWritten::total        29632                       # Number of bytes written to this memory (Byte)
board.memory.mem_ctrl.dram.numReads::cache_hierarchy.l1dcaches.prefetcher          484                       # Number of read requests responded to by this memory (Count)
board.memory.mem_ctrl.dram.numReads::processor.cores.core.inst           10                       # Number of read requests responded to by this memory (Count)
board.memory.mem_ctrl.dram.numReads::processor.cores.core.data           24                       # Number of read requests responded to by this memory (Count)
board.memory.mem_ctrl.dram.numReads::total          518                       # Number of read requests responded to by this memory (Count)
board.memory.mem_ctrl.dram.numWrites::writebacks          463                       # Number of write requests responded to by this memory (Count)
board.memory.mem_ctrl.dram.numWrites::total          463                       # Number of write requests responded to by this memory (Count)
board.memory.mem_ctrl.dram.bwRead::cache_hierarchy.l1dcaches.prefetcher   1730623647                       # Total read bandwidth from this memory ((Byte/Second))
board.memory.mem_ctrl.dram.bwRead::processor.cores.core.inst     35756687                       # Total read bandwidth from this memory ((Byte/Second))
board.memory.mem_ctrl.dram.bwRead::processor.cores.core.data     85816049                       # Total read bandwidth from this memory ((Byte/Second))
board.memory.mem_ctrl.dram.bwRead::total   1852196382                       # Total read bandwidth from this memory ((Byte/Second))
board.memory.mem_ctrl.dram.bwInstRead::processor.cores.core.inst     35756687                       # Instruction read bandwidth from this memory ((Byte/Second))
board.memory.mem_ctrl.dram.bwInstRead::total     35756687                       # Instruction read bandwidth from this memory ((Byte/Second))
board.memory.mem_ctrl.dram.bwWrite::writebacks   1655534604                       # Write bandwidth from this memory ((Byte/Second))
board.memory.mem_ctrl.dram.bwWrite::total   1655534604                       # Write bandwidth from this memory ((Byte/Second))
board.memory.mem_ctrl.dram.bwTotal::writebacks   1655534604                       # Total bandwidth to/from this memory ((Byte/Second))
board.memory.mem_ctrl.dram.bwTotal::cache_hierarchy.l1dcaches.prefetcher   1730623647                       # Total bandwidth to/from this memory ((Byte/Second))
board.memory.mem_ctrl.dram.bwTotal::processor.cores.core.inst     35756687                       # Total bandwidth to/from this memory ((Byte/Second))
board.memory.mem_ctrl.dram.bwTotal::processor.cores.core.data     85816049                       # Total bandwidth to/from this memory ((Byte/Second))
board.memory.mem_ctrl.dram.bwTotal::total   3507730987                       # Total bandwidth to/from this memory ((Byte/Second))
board.memory.mem_ctrl.dram.readBursts             511                       # Number of DRAM read bursts (Count)
board.memory.mem_ctrl.dram.writeBursts            451                       # Number of DRAM write bursts (Count)
board.memory.mem_ctrl.dram.perBankRdBursts::0          138                       # Per bank write bursts (Count)
board.memory.mem_ctrl.dram.perBankRdBursts::1          129                       # Per bank write bursts (Count)
board.memory.mem_ctrl.dram.perBankRdBursts::2            7                       # Per bank write bursts (Count)
board.memory.mem_ctrl.dram.perBankRdBursts::3            0                       # Per bank write bursts (Count)
board.memory.mem_ctrl.dram.perBankRdBursts::4            9                       # Per bank write bursts (Count)
board.memory.mem_ctrl.dram.perBankRdBursts::5            0                       # Per bank write bursts (Count)
board.memory.mem_ctrl.dram.perBankRdBursts::6           26                       # Per bank write bursts (Count)
board.memory.mem_ctrl.dram.perBankRdBursts::7            0                       # Per bank write bursts (Count)
board.memory.mem_ctrl.dram.perBankRdBursts::8            0                       # Per bank write bursts (Count)
board.memory.mem_ctrl.dram.perBankRdBursts::9            1                       # Per bank write bursts (Count)
board.memory.mem_ctrl.dram.perBankRdBursts::10            0                       # Per bank write bursts (Count)
board.memory.mem_ctrl.dram.perBankRdBursts::11            0                       # Per bank write bursts (Count)
board.memory.mem_ctrl.dram.perBankRdBursts::12            0                       # Per bank write bursts (Count)
board.memory.mem_ctrl.dram.perBankRdBursts::13           12                       # Per bank write bursts (Count)
board.memory.mem_ctrl.dram.perBankRdBursts::14           61                       # Per bank write bursts (Count)
board.memory.mem_ctrl.dram.perBankRdBursts::15          128                       # Per bank write bursts (Count)
board.memory.mem_ctrl.dram.perBankWrBursts::0           24                       # Per bank write bursts (Count)
board.memory.mem_ctrl.dram.perBankWrBursts::1            0                       # Per bank write bursts (Count)
board.memory.mem_ctrl.dram.perBankWrBursts::2           95                       # Per bank write bursts (Count)
board.memory.mem_ctrl.dram.perBankWrBursts::3          128                       # Per bank write bursts (Count)
board.memory.mem_ctrl.dram.perBankWrBursts::4            7                       # Per bank write bursts (Count)
board.memory.mem_ctrl.dram.perBankWrBursts::5            0                       # Per bank write bursts (Count)
board.memory.mem_ctrl.dram.perBankWrBursts::6            0                       # Per bank write bursts (Count)
board.memory.mem_ctrl.dram.perBankWrBursts::7            0                       # Per bank write bursts (Count)
board.memory.mem_ctrl.dram.perBankWrBursts::8            0                       # Per bank write bursts (Count)
board.memory.mem_ctrl.dram.perBankWrBursts::9            0                       # Per bank write bursts (Count)
board.memory.mem_ctrl.dram.perBankWrBursts::10            0                       # Per bank write bursts (Count)
board.memory.mem_ctrl.dram.perBankWrBursts::11            0                       # Per bank write bursts (Count)
board.memory.mem_ctrl.dram.perBankWrBursts::12            0                       # Per bank write bursts (Count)
board.memory.mem_ctrl.dram.perBankWrBursts::13            8                       # Per bank write bursts (Count)
board.memory.mem_ctrl.dram.perBankWrBursts::14           61                       # Per bank write bursts (Count)
board.memory.mem_ctrl.dram.perBankWrBursts::15          128                       # Per bank write bursts (Count)
board.memory.mem_ctrl.dram.totQLat           10779514                       # Total ticks spent queuing (Tick)
board.memory.mem_ctrl.dram.totBusLat          2555000                       # Total ticks spent in databus transfers (Tick)
board.memory.mem_ctrl.dram.totMemAccLat      20360764                       # Total ticks spent from burst creation until serviced by the DRAM (Tick)
board.memory.mem_ctrl.dram.avgQLat           21094.94                       # Average queueing delay per DRAM burst ((Tick/Count))
board.memory.mem_ctrl.dram.avgBusLat          5000.00                       # Average bus latency per DRAM burst ((Tick/Count))
board.memory.mem_ctrl.dram.avgMemAccLat      39844.94                       # Average memory access latency per DRAM burst ((Tick/Count))
board.memory.mem_ctrl.dram.readRowHits            473                       # Number of row buffer hits during reads (Count)
board.memory.mem_ctrl.dram.writeRowHits           419                       # Number of row buffer hits during writes (Count)
board.memory.mem_ctrl.dram.readRowHitRate        92.56                       # Row buffer hit rate for reads (Ratio)
board.memory.mem_ctrl.dram.writeRowHitRate        92.90                       # Row buffer hit rate for writes (Ratio)
board.memory.mem_ctrl.dram.bytesPerActivate::samples           75                       # Bytes accessed per row activation (Byte)
board.memory.mem_ctrl.dram.bytesPerActivate::mean   869.546667                       # Bytes accessed per row activation (Byte)
board.memory.mem_ctrl.dram.bytesPerActivate::gmean   787.399324                       # Bytes accessed per row activation (Byte)
board.memory.mem_ctrl.dram.bytesPerActivate::stdev   273.376401                       # Bytes accessed per row activation (Byte)
board.memory.mem_ctrl.dram.bytesPerActivate::0-127            2      2.67%      2.67% # Bytes accessed per row activation (Byte)
board.memory.mem_ctrl.dram.bytesPerActivate::256-383            3      4.00%      6.67% # Bytes accessed per row activation (Byte)
board.memory.mem_ctrl.dram.bytesPerActivate::384-511            5      6.67%     13.33% # Bytes accessed per row activation (Byte)
board.memory.mem_ctrl.dram.bytesPerActivate::512-639            6      8.00%     21.33% # Bytes accessed per row activation (Byte)
[...]
board.processor.cores.core.fetchStats0.icacheStallCycles         9794                       # ICache total stall cycles (Cycle)
board.processor.cores.core.fetchStats0.numFetchSuspends            0                       # Number of times Execute suspended instruction fetching (Count)
board.processor.cores.core.ftq.inserts              0                       # The number of FTQ insertions (Count)
board.processor.cores.core.ftq.removals             0                       # The number of FTQ removals. Not including squashes (Count)
board.processor.cores.core.ftq.squashes             0                       # The number of FTQ squashes (Count)
board.processor.cores.core.ftq.locks                0                       # The number of times the FTQ got locked. (Count)
board.processor.cores.core.ftq.occupancy::samples            0                       # Distribution of the FTQ occupation. (Count)
board.processor.cores.core.ftq.occupancy::mean          nan                       # Distribution of the FTQ occupation. (Count)
board.processor.cores.core.ftq.occupancy::stdev          nan                       # Distribution of the FTQ occupation. (Count)
board.processor.cores.core.ftq.occupancy::underflows            0                       # Distribution of the FTQ occupation. (Count)
board.processor.cores.core.ftq.occupancy::0-3            0                       # Distribution of the FTQ occupation. (Count)
board.processor.cores.core.ftq.occupancy::4-7            0                       # Distribution of the FTQ occupation. (Count)
board.processor.cores.core.ftq.occupancy::8            0                       # Distribution of the FTQ occupation. (Count)
board.processor.cores.core.ftq.occupancy::overflows            0                       # Distribution of the FTQ occupation. (Count)
board.processor.cores.core.ftq.occupancy::min_value            0                       # Distribution of the FTQ occupation. (Count)
board.processor.cores.core.ftq.occupancy::max_value            0                       # Distribution of the FTQ occupation. (Count)
board.processor.cores.core.ftq.occupancy::total            0                       # Distribution of the FTQ occupation. (Count)
board.processor.cores.core.iew.dispatchStatus::running        74776     97.03%     97.03% # Number of cycles dispatch is running (Cycle)
board.processor.cores.core.iew.dispatchStatus::blocked         1778      2.31%     99.33% # Number of cycles dispatch is blocked (Cycle)
board.processor.cores.core.iew.dispatchStatus::squashing          364      0.47%     99.81% # Number of cycles dispatch is squashing (Cycle)
board.processor.cores.core.iew.dispatchStatus::unblocking          149      0.19%    100.00% # Number of cycles dispatch is unblocking (Cycle)
board.processor.cores.core.iew.dispatchedInsts        84606                       # Number of instructions dispatched to IQ (Count)
board.processor.cores.core.iew.dispSquashedInsts           28                       # Number of squashed instructions skipped by dispatch (Count)
board.processor.cores.core.iew.dispLoadInsts        21451                       # Number of dispatched load instructions (Count)
board.processor.cores.core.iew.dispStoreInsts         2800                       # Number of dispatched store instructions (Count)
board.processor.cores.core.iew.dispNonSpecInsts           45                       # Number of dispatched non-speculative instructions (Count)
board.processor.cores.core.iew.iqFullEvents           50                       # Number of times the IQ has become full, causing a stall (Count)
board.processor.cores.core.iew.lsqFullEvents            0                       # Number of times the LSQ has become full, causing a stall (Count)
board.processor.cores.core.iew.memOrderViolationEvents            7                       # Number of memory order violations (Count)
board.processor.cores.core.iew.predictedTakenIncorrect           72                       # Number of branches that were predicted taken incorrectly (Count)
board.processor.cores.core.iew.predictedNotTakenIncorrect          315                       # Number of branches that were predicted not taken incorrectly (Count)
board.processor.cores.core.iew.branchMispredicts          387                       # Number of branch mispredicts detected at execute (Count)
board.processor.cores.core.iew.instsToCommit        83626                       # Cumulative count of insts sent to commit (Count)
board.processor.cores.core.iew.writebackCount        83486                       # Cumulative count of insts written-back (Count)
board.processor.cores.core.iew.producerInst        56065                       # Number of instructions producing a value (Count)
board.processor.cores.core.iew.consumerInst        63121                       # Number of instructions consuming a value (Count)
board.processor.cores.core.iew.wbRate        0.812888                       # Insts written-back per cycle ((Count/Cycle))
board.processor.cores.core.iew.wbFanout      0.888215                       # Average fanout of values written-back ((Count/Count))
board.processor.cores.core.lsq0.forwLoads          175                       # Number of loads that had data forwarded from stores (Count)
board.processor.cores.core.lsq0.squashedLoads          586                       # Number of loads squashed (Count)
board.processor.cores.core.lsq0.ignoredResponses            1                       # Number of memory responses ignored because the instruction is squashed (Count)
board.processor.cores.core.lsq0.memOrderViolation            7                       # Number of memory ordering violations (Count)
board.processor.cores.core.lsq0.squashedStores          230                       # Number of stores squashed (Count)
board.processor.cores.core.lsq0.rescheduledLoads            0                       # Number of loads that were rescheduled (Count)
board.processor.cores.core.lsq0.blockedByCache            0                       # Number of times an access to memory failed due to the cache being blocked (Count)
board.processor.cores.core.lsq0.loadToUse::samples        20865                       # Distribution of cycle latency between the first time a load is issued and its completion (Cycle)
board.processor.cores.core.lsq0.loadToUse::mean     5.803115                       # Distribution of cycle latency between the first time a load is issued and its completion (Cycle)
board.processor.cores.core.lsq0.loadToUse::stdev    33.067362                       # Distribution of cycle latency between the first time a load is issued and its completion (Cycle)
board.processor.cores.core.lsq0.loadToUse::0-9        20283     97.21%     97.21% # Distribution of cycle latency between the first time a load is issued and its completion (Cycle)
board.processor.cores.core.lsq0.loadToUse::10-19           28      0.13%     97.34% # Distribution of cycle latency between the first time a load is issued and its completion (Cycle)
board.processor.cores.core.lsq0.loadToUse::20-29           31      0.15%     97.49% # Distribution of cycle latency between the first time a load is issued and its completion (Cycle)
board.processor.cores.core.lsq0.loadToUse::30-39           32      0.15%     97.65% # Distribution of cycle latency between the first time a load is issued and its completion (Cycle)
board.processor.cores.core.lsq0.loadToUse::40-49           45      0.22%     97.86% # Distribution of cycle latency between the first time a load is issued and its completion (Cycle)
board.processor.cores.core.lsq0.loadToUse::50-59           32      0.15%     98.02% # Distribution of cycle latency between the first time a load is issued and its completion (Cycle)
board.processor.cores.core.lsq0.loadToUse::60-69           43      0.21%     98.22% # Distribution of cycle latency between the first time a load is issued and its completion (Cycle)
board.processor.cores.core.lsq0.loadToUse::70-79           45      0.22%     98.44% # Distribution of cycle latency between the first time a load is issued and its completion (Cycle)
board.processor.cores.core.lsq0.loadToUse::80-89           34      0.16%     98.60% # Distribution of cycle latency between the first time a load is issued and its completion (Cycle)
board.processor.cores.core.lsq0.loadToUse::90-99           27      0.13%     98.73% # Distribution of cycle latency between the first time a load is issued and its completion (Cycle)
board.processor.cores.core.lsq0.loadToUse::100-109           27      0.13%     98.86% # Distribution of cycle latency between the first time a load is issued and its completion (Cycle)
board.processor.cores.core.lsq0.loadToUse::110-119           17      0.08%     98.94% # Distribution of cycle latency between the first time a load is issued and its completion (Cycle)
board.processor.cores.core.lsq0.loadToUse::120-129           27      0.13%     99.07% # Distribution of cycle latency between the first time a load is issued and its completion (Cycle)
board.processor.cores.core.lsq0.loadToUse::130-139           40      0.19%     99.26% # Distribution of cycle latency between the first time a load is issued and its completion (Cycle)
board.processor.cores.core.lsq0.loadToUse::140-149           25      0.12%     99.38% # Distribution of cycle latency between the first time a load is issued and its completion (Cycle)
board.processor.cores.core.lsq0.loadToUse::150-159           18      0.09%     99.47% # Distribution of cycle latency between the first time a load is issued and its completion (Cycle)
board.processor.cores.core.lsq0.loadToUse::160-169           16      0.08%     99.54% # Distribution of cycle latency between the first time a load is issued and its completion (Cycle)
board.processor.cores.core.lsq0.loadToUse::170-179           22      0.11%     99.65% # Distribution of cycle latency between the first time a load is issued and its completion (Cycle)
board.processor.cores.core.lsq0.loadToUse::180-189            7      0.03%     99.68% # Distribution of cycle latency between the first time a load is issued and its completion (Cycle)
board.processor.cores.core.lsq0.loadToUse::190-199            7      0.03%     99.72% # Distribution of cycle latency between the first time a load is issued and its completion (Cycle)
board.processor.cores.core.lsq0.loadToUse::200-209            4      0.02%     99.74% # Distribution of cycle latency between the first time a load is issued and its completion (Cycle)
board.processor.cores.core.lsq0.loadToUse::210-219           14      0.07%     99.80% # Distribution of cycle latency between the first time a load is issued and its completion (Cycle)
board.processor.cores.core.lsq0.loadToUse::220-229            4      0.02%     99.82% # Distribution of cycle latency between the first time a load is issued and its completion (Cycle)
board.processor.cores.core.lsq0.loadToUse::230-239            1      0.00%     99.83% # Distribution of cycle latency between the first time a load is issued and its completion (Cycle)
board.processor.cores.core.lsq0.loadToUse::240-249            1      0.00%     99.83% # Distribution of cycle latency between the first time a load is issued and its completion (Cycle)
board.processor.cores.core.lsq0.loadToUse::260-269            1      0.00%     99.84% # Distribution of cycle latency between the first time a load is issued and its completion (Cycle)
board.processor.cores.core.lsq0.loadToUse::overflows           34      0.16%    100.00% # Distribution of cycle latency between the first time a load is issued and its completion (Cycle)
board.processor.cores.core.lsq0.loadToUse::min_value            2                       # Distribution of cycle latency between the first time a load is issued and its completion (Cycle)
board.processor.cores.core.lsq0.loadToUse::max_value          854                       # Distribution of cycle latency between the first time a load is issued and its completion (Cycle)
board.processor.cores.core.lsq0.loadToUse::total        20865                       # Distribution of cycle latency between the first time a load is issued and its completion (Cycle)
board.processor.cores.core.lsq0.addedLoadsAndStores        24251                       # Number of loads and stores written to the Load Store Queue (Count)
board.processor.cores.core.lsq0.lqAvgOccupancy         0.49                       # Average LQ Occupancy (UsedSlots/TotalSlots) (Ratio)
board.processor.cores.core.lsq0.sqAvgOccupancy         0.04                       # Average SQ Occupancy (UsedSlots/TotalSlots) (Ratio)
board.processor.cores.core.mmu.dtb.readHits            0                       # read hits (Count)
board.processor.cores.core.mmu.dtb.readMisses            0                       # read misses (Count)
board.processor.cores.core.mmu.dtb.readAccesses            0                       # read accesses (Count)
board.processor.cores.core.mmu.dtb.writeHits            0                       # write hits (Count)
board.processor.cores.core.mmu.dtb.writeMisses            0                       # write misses (Count)
board.processor.cores.core.mmu.dtb.writeAccesses            0                       # write accesses (Count)
board.processor.cores.core.mmu.dtb.hits             0                       # Total TLB (read and write) hits (Count)
board.processor.cores.core.mmu.dtb.misses            0                       # Total TLB (read and write) misses (Count)
board.processor.cores.core.mmu.dtb.accesses            0                       # Total TLB (read and write) accesses (Count)
board.processor.cores.core.mmu.dtb.walker.num_4kb_walks            0                       # Completed page walks with 4KB pages (Count)
board.processor.cores.core.mmu.dtb.walker.num_64kb_walks            0                       # Completed page walks with 64KB pages (Count)
board.processor.cores.core.mmu.dtb.walker.num_2mb_walks            0                       # Completed page walks with 2MB pages (Count)
board.processor.cores.core.mmu.dtb.walker.power_state.pwrStateResidencyTicks::UNDEFINED     95516388                       # Cumulative time (in ticks) in various power states (Tick)
board.processor.cores.core.mmu.itb.readHits            0                       # read hits (Count)
board.processor.cores.core.mmu.itb.readMisses            0                       # read misses (Count)
board.processor.cores.core.mmu.itb.readAccesses            0                       # read accesses (Count)
board.processor.cores.core.mmu.itb.writeHits            0                       # write hits (Count)
board.processor.cores.core.mmu.itb.writeMisses            0                       # write misses (Count)
board.processor.cores.core.mmu.itb.writeAccesses            0                       # write accesses (Count)
board.processor.cores.core.mmu.itb.hits             0                       # Total TLB (read and write) hits (Count)
board.processor.cores.core.mmu.itb.misses            0                       # Total TLB (read and write) misses (Count)
board.processor.cores.core.mmu.itb.accesses            0                       # Total TLB (read and write) accesses (Count)
board.processor.cores.core.mmu.itb.walker.num_4kb_walks            0                       # Completed page walks with 4KB pages (Count)
board.processor.cores.core.mmu.itb.walker.num_64kb_walks            0                       # Completed page walks with 64KB pages (Count)
board.processor.cores.core.mmu.itb.walker.num_2mb_walks            0                       # Completed page walks with 2MB pages (Count)
board.processor.cores.core.mmu.itb.walker.power_state.pwrStateResidencyTicks::UNDEFINED     95516388                       # Cumulative time (in ticks) in various power states (Tick)
board.processor.cores.core.power_state.pwrStateResidencyTicks::ON     95516388                       # Cumulative time (in ticks) in various power states (Tick)
board.processor.cores.core.rename.status::Running        41158     53.41%     53.41% # Number of cycles rename is running (Cycle)
board.processor.cores.core.rename.status::Idle        15028     19.50%     72.91% # Number of cycles rename is idle (Cycle)
board.processor.cores.core.rename.status::Squashing          364      0.47%     73.38% # Number of cycles rename is squashing (Cycle)
board.processor.cores.core.rename.status::Blocked         3029      3.93%     77.31% # Number of cycles rename is blocking (Cycle)
board.processor.cores.core.rename.status::Unblocking        14710     19.09%     96.40% # Number of cycles rename is unblocking (Cycle)
board.processor.cores.core.rename.status::SerializeStall         2778      3.60%    100.00% # Number of cycles rename stalled for serializing inst (Cycle)
board.processor.cores.core.rename.renamedInsts        85534                       # Number of instructions processed by rename (Count)
board.processor.cores.core.rename.ROBFullEvents          871                       # Number of times rename has blocked due to ROB full (Count)
board.processor.cores.core.rename.IQFullEvents          105                       # Number of times rename has blocked due to IQ full (Count)
board.processor.cores.core.rename.LQFullEvents         1731                       # Number of times rename has blocked due to LQ full (Count)
board.processor.cores.core.rename.fullRegistersEvents        10073                       # Number of times there has been no free registers (Count)
board.processor.cores.core.rename.renamedOperands        70041                       # Number of destination operands rename has renamed (Count)
board.processor.cores.core.rename.lookups       118141                       # Number of register rename lookups that rename has made (Count)
board.processor.cores.core.rename.intLookups        78441                       # Number of integer rename lookups (Count)
board.processor.cores.core.rename.fpLookups        37989                       # Number of floating rename lookups (Count)
board.processor.cores.core.rename.committedMaps        67692                       # Number of HB maps that are committed (Count)
board.processor.cores.core.rename.undoneMaps         2351                       # Number of HB maps that are undone due to squashing (Count)
board.processor.cores.core.rename.serializing           39                       # count of serializing insts renamed (Count)
board.processor.cores.core.rename.tempSerializing           39                       # count of temporary serializing insts renamed (Count)
board.processor.cores.core.rename.skidInsts         8917                       # count of insts added to the skid buffer (Count)
board.processor.cores.core.rename.intReturned        31392                       # count of registers freed and written back to integer free list (Count)
board.processor.cores.core.rename.fpReturned        36256                       # count of registers freed and written back to floating point free list (Count)
board.processor.cores.core.rob.reads           123094                       # The number of ROB reads (Count)
board.processor.cores.core.rob.writes          170558                       # The number of ROB writes (Count)
board.processor.cores.core.thread_0.numInsts        82203                       # Number of Instructions committed (Count)
board.processor.cores.core.thread_0.numOps        82232                       # Number of Ops committed (Count)
board.processor.cores.core.thread_0.numMemRefs        23435                       # Number of Memory References (Count)
board.processor.cores.core.workload.numSyscalls            6                       # Number of system calls (Count)
board.workload.inst.arm                             0                       # number of arm instructions executed (Count)
board.workload.inst.quiesce                         0                       # number of quiesce instructions executed (Count)

---------- End Simulation Statistics   ----------
