
---------- Begin Simulation Statistics ----------
simSeconds                                   0.000005                       # Number of seconds simulated (Second)
simTicks                                      5396598                       # Number of ticks simulated (Tick)
finalTick                                    48032919                       # Number of ticks from beginning of simulation (restored from checkpoints and never reset) (Tick)
simFreq                                  1000000000000                       # The number of ticks per simulated second ((Tick/Second))
hostSeconds                                      0.07                       # Real time elapsed on the host (Second)
hostTickRate                                 77206758                       # The number of ticks simulated per host second (ticks/s) ((Tick/Second))
hostMemory                                    7523316                       # Number of bytes of host memory used (Byte)
simInsts                                        24717                       # Number of instructions simulated (Count)
simOps                                          24717                       # Number of ops (including micro ops) simulated (Count)
hostInstRate                                   352954                       # Simulator instruction rate (inst/s) ((Count/Second))
hostOpRate                                     352924                       # Simulator op (including micro ops) rate (op/s) ((Count/Second))
board.cache_hierarchy.l1dcaches.demandHits::processor.cores.core.data         9245                       # number of demand (read+write) hits (Count)
board.cache_hierarchy.l1dcaches.demandHits::total         9245                       # number of demand (read+write) hits (Count)
board.cache_hierarchy.l1dcaches.overallHits::processor.cores.core.data         9245                       # number of overall hits (Count)
board.cache_hierarchy.l1dcaches.overallHits::total         9245                       # number of overall hits (Count)
board.cache_hierarchy.l1dcaches.demandMisses::processor.cores.core.data           49                       # number of demand (read+write) misses (Count)
board.cache_hierarchy.l1dcaches.demandMisses::total           49                       # number of demand (read+write) misses (Count)
board.cache_hierarchy.l1dcaches.overallMisses::processor.cores.core.data           49                       # number of overall misses (Count)
board.cache_hierarchy.l1dcaches.overallMisses::total           49                       # number of overall misses (Count)
board.cache_hierarchy.l1dcaches.demandMissLatency::processor.cores.core.data      1391274                       # number of demand (read+write) miss ticks (Tick)
board.cache_hierarchy.l1dcaches.demandMissLatency::total      1391274                       # number of demand (read+write) miss ticks (Tick)
board.cache_hierarchy.l1dcaches.overallMissLatency::processor.cores.core.data      1391274                       # number of overall miss ticks (Tick)
board.cache_hierarchy.l1dcaches.overallMissLatency::total      1391274                       # number of overall miss ticks (Tick)
board.cache_hierarchy.l1dcaches.demandAccesses::processor.cores.core.data         9294                       # number of demand (read+write) accesses (Count)
board.cache_hierarchy.l1dcaches.demandAccesses::total         9294                       # number of demand (read+write) accesses (Count)
board.cache_hierarchy.l1dcaches.overallAccesses::processor.cores.core.data         9294                       # number of overall (read+write) accesses (Count)
board.cache_hierarchy.l1dcaches.overallAccesses::total         9294                       # number of overall (read+write) accesses (Count)
board.cache_hierarchy.l1dcaches.demandMissRate::processor.cores.core.data     0.005272                       # miss rate for demand accesses (Ratio)
board.cache_hierarchy.l1dcaches.demandMissRate::total     0.005272                       # miss rate for demand accesses (Ratio)
board.cache_hierarchy.l1dcaches.overallMissRate::processor.cores.core.data     0.005272                       # miss rate for overall accesses (Ratio)
board.cache_hierarchy.l1dcaches.overallMissRate::total     0.005272                       # miss rate for overall accesses (Ratio)
board.cache_hierarchy.l1dcaches.demandAvgMissLatency::processor.cores.core.data 28393.346939                       # average overall miss latency in ticks ((Tick/Count))
board.cache_hierarchy.l1dcaches.demandAvgMissLatency::total 28393.346939                       # average overall miss latency in ticks ((Tick/Count))
board.cache_hierarchy.l1dcaches.overallAvgMissLatency::processor.cores.core.data 28393.346939                       # average overall miss latency ((Tick/Count))
board.cache_hierarchy.l1dcaches.overallAvgMissLatency::total 28393.346939                       # average overall miss latency ((Tick/Count))
board.cache_hierarchy.l1dcaches.blockedCycles::no_mshrs            0                       # number of cycles access was blocked (Cycle)
board.cache_hierarchy.l1dcaches.blockedCycles::no_wbuffers            0                       # number of cycles access was blocked (Cycle)
board.cache_hierarchy.l1dcaches.blockedCycles::no_targets            0                       # number of cycles access was blocked (Cycle)
board.cache_hierarchy.l1dcaches.blockedCauses::no_mshrs            0                       # number of times access was blocked (Count)
board.cache_hierarchy.l1dcaches.blockedCauses::no_wbuffers            0                       # number of times access was blocked (Count)
board.cache_hierarchy.l1dcaches.blockedCauses::no_targets            0                       # number of times access was blocked (Count)
board.cache_hierarchy.l1dcaches.avgBlocked::no_mshrs          nan                       # average number of cycles each access was blocked ((Cycle/Count))
board.cache_hierarchy.l1dcaches.avgBlocked::no_wbuffers          nan                       # average number of cycles each access was blocked ((Cycle/Count))
board.cache_hierarchy.l1dcaches.avgBlocked::no_targets          nan                       # average number of cycles each access was blocked ((Cycle/Count))
board.cache_hierarchy.l1dcaches.writebacks::writebacks           25                       # number of writebacks (Count)
board.cache_hierarchy.l1dcaches.writebacks::total           25                       # number of writebacks (Count)
board.cache_hierarchy.l1dcaches.demandMshrHits::processor.cores.core.data           32                       # number of demand (read+write) MSHR hits (Count)
board.cache_hierarchy.l1dcaches.demandMshrHits::total           32                       # number of demand (read+write) MSHR hits (Count)
board.cache_hierarchy.l1dcaches.overallMshrHits::processor.cores.core.data           32                       # number of overall MSHR hits (Count)
board.cache_hierarchy.l1dcaches.overallMshrHits::total           32                       # number of overall MSHR hits (Count)
board.cache_hierarchy.l1dcaches.demandMshrMisses::processor.cores.core.data           17                       # number of demand (read+write) MSHR misses (Count)
board.cache_hierarchy.l1dcaches.demandMshrMisses::total           17                       # number of demand (read+write) MSHR misses (Count)
board.cache_hierarchy.l1dcaches.overallMshrMisses::cache_hierarchy.l1dcaches.prefetcher            6                       # number of overall MSHR misses (Count)
board.cache_hierarchy.l1dcaches.overallMshrMisses::processor.cores.core.data           17                       # number of overall MSHR misses (Count)
board.cache_hierarchy.l1dcaches.overallMshrMisses::total           23                       # number of overall MSHR misses (Count)
board.cache_hierarchy.l1dcaches.demandMshrMissLatency::processor.cores.core.data       923076                       # number of demand (read+write) MSHR miss ticks (Tick)
board.cache_hierarchy.l1dcaches.demandMshrMissLatency::total       923076                       # number of demand (read+write) MSHR miss ticks (Tick)
board.cache_hierarchy.l1dcaches.overallMshrMissLatency::cache_hierarchy.l1dcaches.prefetcher       372946                       # number of overall MSHR miss ticks (Tick)
board.cache_hierarchy.l1dcaches.overallMshrMissLatency::processor.cores.core.data       923076                       # number of overall MSHR miss ticks (Tick)
board.cache_hierarchy.l1dcaches.overallMshrMissLatency::total      1296022                       # number of overall MSHR miss ticks (Tick)
board.cache_hierarchy.l1dcaches.demandMshrMissRate::processor.cores.core.data     0.001829                       # mshr miss ratio for demand accesses (Ratio)
board.cache_hierarchy.l1dcaches.demandMshrMissRate::total     0.001829                       # mshr miss ratio for demand accesses (Ratio)
board.cache_hierarchy.l1dcaches.overallMshrMissRate::cache_hierarchy.l1dcaches.prefetcher          inf                       # mshr miss ratio for overall accesses (Ratio)
board.cache_hierarchy.l1dcaches.overallMshrMissRate::processor.cores.core.data     0.001829                       # mshr miss ratio for overall accesses (Ratio)
board.cache_hierarchy.l1dcaches.overallMshrMissRate::total     0.002475                       # mshr miss ratio for overall accesses (Ratio)
board.cache_hierarchy.l1dcaches.demandAvgMshrMissLatency::processor.cores.core.data 54298.588235                       # average overall mshr miss latency ((Tick/Count))
board.cache_hierarchy.l1dcaches.demandAvgMshrMissLatency::total 54298.588235                       # average overall mshr miss latency ((Tick/Count))
board.cache_hierarchy.l1dcaches.overallAvgMshrMissLatency::cache_hierarchy.l1dcaches.prefetcher 62157.666667                       # average overall mshr miss latency ((Tick/Count))
board.cache_hierarchy.l1dcaches.overallAvgMshrMissLatency::processor.cores.core.data 54298.588235                       # average overall mshr miss latency ((Tick/Count))
board.cache_hierarchy.l1dcaches.overallAvgMshrMissLatency::total 56348.782609                       # average overall mshr miss latency ((Tick/Count))
board.cache_hierarchy.l1dcaches.replacements           25                       # number of replacements (Count)
board.cache_hierarchy.l1dcaches.HardPFReq.mshrMisses::cache_hierarchy.l1dcaches.prefetcher            6                       # number of HardPFReq MSHR misses (Count)
board.cache_hierarchy.l1dcaches.HardPFReq.mshrMisses::total            6                       # number of HardPFReq MSHR misses (Count)
board.cache_hierarchy.l1dcaches.HardPFReq.mshrMissLatency::cache_hierarchy.l1dcaches.prefetcher       372946                       # number of HardPFReq MSHR miss ticks (Tick)
board.cache_hierarchy.l1dcaches.HardPFReq.mshrMissLatency::total       372946                       # number of HardPFReq MSHR miss ticks (Tick)
board.cache_hierarchy.l1dcaches.HardPFReq.mshrMissRate::cache_hierarchy.l1dcaches.prefetcher          inf                       # mshr miss rate for HardPFReq accesses (Ratio)
board.cache_hierarchy.l1dcaches.HardPFReq.mshrMissRate::total          inf                       # mshr miss rate for HardPFReq accesses (Ratio)
board.cache_hierarchy.l1dcaches.HardPFReq.avgMshrMissLatency::cache_hierarchy.l1dcaches.prefetcher 62157.666667                       # average HardPFReq mshr miss latency ((Tick/Count))
board.cache_hierarchy.l1dcaches.HardPFReq.avgMshrMissLatency::total 62157.666667                       # average HardPFReq mshr miss latency ((Tick/Count))
board.cache_hierarchy.l1dcaches.ReadReq.hits::processor.cores.core.data         8985                       # number of ReadReq hits (Count)
board.cache_hierarchy.l1dcaches.ReadReq.hits::total         8985                       # number of ReadReq hits (Count)
board.cache_hierarchy.l1dcaches.ReadReq.misses::processor.cores.core.data           44                       # number of ReadReq misses (Count)
board.cache_hierarchy.l1dcaches.ReadReq.misses::total           44                       # number of ReadReq misses (Count)
board.cache_hierarchy.l1dcaches.ReadReq.missLatency::processor.cores.core.data      1166832                       # number of ReadReq miss ticks (Tick)
board.cache_hierarchy.l1dcaches.ReadReq.missLatency::total      1166832                       # number of ReadReq miss ticks (Tick)
board.cache_hierarchy.l1dcaches.ReadReq.accesses::processor.cores.core.data         9029                       # number of ReadReq accesses(hits+misses) (Count)
board.cache_hierarchy.l1dcaches.ReadReq.accesses::total         9029                       # number of ReadReq accesses(hits+misses) (Count)
board.cache_hierarchy.l1dcaches.ReadReq.missRate::processor.cores.core.data     0.004873                       # miss rate for ReadReq accesses (Ratio)
board.cache_hierarchy.l1dcaches.ReadReq.missRate::total     0.004873                       # miss rate for ReadReq accesses (Ratio)
board.cache_hierarchy.l1dcaches.ReadReq.avgMissLatency::processor.cores.core.data 26518.909091                       # average ReadReq miss latency ((Tick/Count))
board.cache_hierarchy.l1dcaches.ReadReq.avgMissLatency::total 26518.909091                       # average ReadReq miss latency ((Tick/Count))
board.cache_hierarchy.l1dcaches.ReadReq.mshrHits::processor.cores.core.data           31                       # number of ReadReq MSHR hits (Count)
board.cache_hierarchy.l1dcaches.ReadReq.mshrHits::total           31                       # number of ReadReq MSHR hits (Count)
board.cache_hierarchy.l1dcaches.ReadReq.mshrMisses::processor.cores.core.data           13                       # number of ReadReq MSHR misses (Count)
board.cache_hierarchy.l1dcaches.ReadReq.mshrMisses::total           13                       # number of ReadReq MSHR misses (Count)
board.cache_hierarchy.l1dcaches.ReadReq.mshrMissLatency::processor.cores.core.data       711288                       # number of ReadReq MSHR miss ticks (Tick)
board.cache_hierarchy.l1dcaches.ReadReq.mshrMissLatency::total       711288                       # number of ReadReq MSHR miss ticks (Tick)
board.cache_hierarchy.l1dcaches.ReadReq.mshrMissRate::processor.cores.core.data     0.001440                       # mshr miss rate for ReadReq accesses (Ratio)
board.cache_hierarchy.l1dcaches.ReadReq.mshrMissRate::total     0.001440                       # mshr miss rate for ReadReq accesses (Ratio)
board.cache_hierarchy.l1dcaches.ReadReq.avgMshrMissLatency::processor.cores.core.data 54714.461538                       # average ReadReq mshr miss latency ((Tick/Count))
board.cache_hierarchy.l1dcaches.ReadReq.avgMshrMissLatency::total 54714.461538                       # average ReadReq mshr miss latency ((Tick/Count))
board.cache_hierarchy.l1dcaches.WriteReq.hits::processor.cores.core.data          260                       # number of WriteReq hits (Count)
board.cache_hierarchy.l1dcaches.WriteReq.hits::total          260                       # number of WriteReq hits (Count)
board.cache_hierarchy.l1dcaches.WriteReq.misses::processor.cores.core.data            5                       # number of WriteReq misses (Count)
board.cache_hierarchy.l1dcaches.WriteReq.misses::total            5                       # number of WriteReq misses (Count)
board.cache_hierarchy.l1dcaches.WriteReq.missLatency::processor.cores.core.data       224442                       # number of WriteReq miss ticks (Tick)
board.cache_hierarchy.l1dcaches.WriteReq.missLatency::total       224442                       # number of WriteReq miss ticks (Tick)
board.cache_hierarchy.l1dcaches.WriteReq.accesses::processor.cores.core.data          265                       # number of WriteReq accesses(hits+misses) (Count)
board.cache_hierarchy.l1dcaches.WriteReq.accesses::total          265                       # number of WriteReq accesses(hits+misses) (Count)
board.cache_hierarchy.l1dcaches.WriteReq.missRate::processor.cores.core.data     0.018868                       # miss rate for WriteReq accesses (Ratio)
board.cache_hierarchy.l1dcaches.WriteReq.missRate::total     0.018868                       # miss rate for WriteReq accesses (Ratio)
board.cache_hierarchy.l1dcaches.WriteReq.avgMissLatency::processor.cores.core.data 44888.400000                       # average WriteReq miss latency ((Tick/Count))
board.cache_hierarchy.l1dcaches.WriteReq.avgMissLatency::total 44888.400000                       # average WriteReq miss latency ((Tick/Count))
board.cache_hierarchy.l1dcaches.WriteReq.mshrHits::processor.cores.core.data            1                       # number of WriteReq MSHR hits (Count)
board.cache_hierarchy.l1dcaches.WriteReq.mshrHits::total            1                       # number of WriteReq MSHR hits (Count)
board.cache_hierarchy.l1dcaches.WriteReq.mshrMisses::processor.cores.core.data            4                       # number of WriteReq MSHR misses (Count)
board.cache_hierarchy.l1dcaches.WriteReq.mshrMisses::total            4                       # number of WriteReq MSHR misses (Count)
board.cache_hierarchy.l1dcaches.WriteReq.mshrMissLatency::processor.cores.core.data       211788                       # number of WriteReq MSHR miss ticks (Tick)
board.cache_hierarchy.l1dcaches.WriteReq.mshrMissLatency::total       211788                       # number of WriteReq MSHR miss ticks (Tick)
board.cache_hierarchy.l1dcaches.WriteReq.mshrMissRate::processor.cores.core.data     0.015094                       # mshr miss rate for WriteReq accesses (Ratio)
board.cache_hierarchy.l1dcaches.WriteReq.mshrMissRate::total     0.015094                       # mshr miss rate for WriteReq accesses (Ratio)
board.cache_hierarchy.l1dcaches.WriteReq.avgMshrMissLatency::processor.cores.core.data        52947                       # average WriteReq mshr miss latency ((Tick/Count))
board.cache_hierarchy.l1dcaches.WriteReq.avgMshrMissLatency::total        52947                       # average WriteReq mshr miss latency ((Tick/Count))
board.cache_hierarchy.l1dcaches.power_state.pwrStateResidencyTicks::UNDEFINED     48032919                       # Cumulative time (in ticks) in various power states (Tick)
board.cache_hierarchy.l1dcaches.prefetcher.demandMshrMisses           17                       # demands not covered by prefetchs (Count)
board.cache_hierarchy.l1dcaches.prefetcher.pfIssued           24                       # number of hwpf issued (Count)
board.cache_hierarchy.l1dcaches.prefetcher.pfUseful            6                       # number of useful prefetch (Count)
board.cache_hierarchy.l1dcaches.prefetcher.pfUsefulButMiss            0                       # number of hit on prefetch but cache block is not in an usable state (Count)
board.cache_hierarchy.l1dcaches.prefetcher.accuracy     0.250000                       # accuracy of the prefetcher (Count)
board.cache_hierarchy.l1dcaches.prefetcher.coverage     0.260870                       # coverage brought by this prefetcher (Count)
board.cache_hierarchy.l1dcaches.prefetcher.pfHitInCache           18                       # number of prefetches hitting in cache (Count)
board.cache_hierarchy.l1dcaches.prefetcher.pfHitInMSHR            0                       # number of prefetches hitting in a MSHR (Count)
board.cache_hierarchy.l1dcaches.prefetcher.pfHitInWB            0                       # number of prefetches hit in the Write Buffer (Count)
board.cache_hierarchy.l1dcaches.prefetcher.pfLate           18                       # number of late prefetches (hitting in cache, MSHR or WB) (Count)
board.cache_hierarchy.l1dcaches.prefetcher.pfIdentified           28                       # number of prefetch candidates identified (Count)
board.cache_hierarchy.l1dcaches.prefetcher.pfBufferHit            3                       # number of redundant prefetches already in prefetch queue (Count)
board.cache_hierarchy.l1dcaches.prefetcher.pfInCache            0                       # number of redundant prefetches already in cache/mshr dropped (Count)
board.cache_hierarchy.l1dcaches.prefetcher.pfRemovedDemand            0                       # number of prefetches dropped due to a demand for the same address (Count)
board.cache_hierarchy.l1dcaches.prefetcher.pfRemovedFull            0                       # number of prefetches dropped due to prefetch queue size (Count)
board.cache_hierarchy.l1dcaches.prefetcher.pfSpanPage            0                       # number of prefetches that crossed the page (Count)
board.cache_hierarchy.l1dcaches.prefetcher.pfUsefulSpanPage            0                       # number of prefetches that is useful and crossed the page (Count)
board.cache_hierarchy.l1dcaches.prefetcher.power_state.pwrStateResidencyTicks::UNDEFINED     48032919                       # Cumulative time (in ticks) in various power states (Tick)
board.cache_hierarchy.l1dcaches.tags.tagsInUse          512                       # Average ticks per tags in use ((Tick/Count))
board.cache_hierarchy.l1dcaches.tags.totalRefs          424                       # Total number of references to valid blocks. (Count)
board.cache_hierarchy.l1dcaches.tags.sampledRefs           25                       # Sample count of references to valid blocks. (Count)
board.cache_hierarchy.l1dcaches.tags.avgRefs    16.960000                       # Average number of references to valid blocks. ((Count/Count))
board.cache_hierarchy.l1dcaches.tags.warmupTick            0                       # The tick when the warmup percentage was hit. (Tick)
board.cache_hierarchy.l1dcaches.tags.occupancies::cache_hierarchy.l1dcaches.prefetcher   491.910834                       # Average occupied blocks per tick, per requestor ((Count/Tick))
board.cache_hierarchy.l1dcaches.tags.occupancies::processor.cores.core.data    20.089166                       # Average occupied blocks per tick, per requestor ((Count/Tick))
board.cache_hierarchy.l1dcaches.tags.avgOccs::cache_hierarchy.l1dcaches.prefetcher     0.960763                       # Average percentage of cache occupancy ((Ratio/Tick))
board.cache_hierarchy.l1dcaches.tags.avgOccs::processor.cores.core.data     0.039237                       # Average percentage of cache occupancy ((Ratio/Tick))
board.cache_hierarchy.l1dcaches.tags.avgOccs::total            1                       # Average percentage of cache occupancy ((Ratio/Tick))
board.cache_hierarchy.l1dcaches.tags.occupanciesTaskId::1022          484                       # Occupied blocks per task id (Count)
board.cache_hierarchy.l1dcaches.tags.occupanciesTaskId::1024           28                       # Occupied blocks per task id (Count)
board.cache_hierarchy.l1dcaches.tags.ageTaskId_1022::0          382                       # Occupied blocks per task id, per block age (Count)
board.cache_hierarchy.l1dcaches.tags.ageTaskId_1022::1          102                       # Occupied blocks per task id, per block age (Count)
board.cache_hierarchy.l1dcaches.tags.ageTaskId_1024::0           23                       # Occupied blocks per task id, per block age (Count)
board.cache_hierarchy.l1dcaches.tags.ageTaskId_1024::1            5                       # Occupied blocks per task id, per block age (Count)
board.cache_hierarchy.l1dcaches.tags.ratioOccsTaskId::1022     0.945312                       # Ratio of occupied blocks and all blocks, per task id (Ratio)
board.cache_hierarchy.l1dcaches.tags.ratioOccsTaskId::1024     0.054688                       # Ratio of occupied blocks and all blocks, per task id (Ratio)
board.cache_hierarchy.l1dcaches.tags.tagAccesses        74377                       # Number of tag accesses (Count)
board.cache_hierarchy.l1dcaches.tags.dataAccesses        74377                       # Number of data accesses (Count)
board.cache_hierarchy.l1dcaches.tags.power_state.pwrStateResidencyTicks::UNDEFINED     48032919                       # Cumulative time (in ticks) in various power states (Tick)
board.cache_hierarchy.l1icaches.demandHits::processor.cores.core.inst         6785                       # number of demand (read+write) hits (Count)
board.cache_hierarchy.l1icaches.demandHits::total         6785                       # number of demand (read+write) hits (Count)
board.cache_hierarchy.l1icaches.overallHits::processor.cores.core.inst         6785                       # number of overall hits (Count)
board.cache_hierarchy.l1icaches.overallHits::total         6785                       # number of overall hits (Count)
board.cache_hierarchy.l1icaches.demandMisses::processor.cores.core.inst           20                       # number of demand (read+write) misses (Count)
board.cache_hierarchy.l1icaches.demandMisses::total           20                       # number of demand (read+write) misses (Count)
board.cache_hierarchy.l1icaches.overallMisses::processor.cores.core.inst           20                       # number of overall misses (Count)
board.cache_hierarchy.l1icaches.overallMisses::total           20                       # number of overall misses (Count)
board.cache_hierarchy.l1icaches.demandMissLatency::processor.cores.core.inst      1072260                       # number of demand (read+write) miss ticks (Tick)
board.cache_hierarchy.l1icaches.demandMissLatency::total      1072260                       # number of demand (read+write) miss ticks (Tick)
board.cache_hierarchy.l1icaches.overallMissLatency::processor.cores.core.inst      1072260                       # number of overall miss ticks (Tick)
board.cache_hierarchy.l1icaches.overallMissLatency::total      1072260                       # number of overall miss ticks (Tick)
board.cache_hierarchy.l1icaches.demandAccesses::processor.cores.core.inst         6805                       # number of demand (read+write) accesses (Count)
board.cache_hierarchy.l1icaches.demandAccesses::total         6805                       # number of demand (read+write) accesses (Count)
board.cache_hierarchy.l1icaches.overallAccesses::processor.cores.core.inst         6805                       # number of overall (read+write) accesses (Count)
board.cache_hierarchy.l1icaches.overallAccesses::total         6805                       # number of overall (read+write) accesses (Count)
board.cache_hierarchy.l1icaches.demandMissRate::processor.cores.core.inst     0.002939                       # miss rate for demand accesses (Ratio)
board.cache_hierarchy.l1icaches.demandMissRate::total     0.002939                       # miss rate for demand accesses (Ratio)
board.cache_hierarchy.l1icaches.overallMissRate::processor.cores.core.inst     0.002939                       # miss rate for overall accesses (Ratio)
board.cache_hierarchy.l1icaches.overallMissRate::total     0.002939                       # miss rate for overall accesses (Ratio)
board.cache_hierarchy.l1icaches.demandAvgMissLatency::processor.cores.core.inst        53613                       # average overall miss latency in ticks ((Tick/Count))
board.cache_hierarchy.l1icaches.demandAvgMissLatency::total        53613                       # average overall miss latency in ticks ((Tick/Count))
board.cache_hierarchy.l1icaches.overallAvgMissLatency::processor.cores.core.inst        53613                       # average overall miss latency ((Tick/Count))
board.cache_hierarchy.l1icaches.overallAvgMissLatency::total        53613                       # average overall miss latency ((Tick/Count))
board.cache_hierarchy.l1icaches.blockedCycles::no_mshrs            0                       # number of cycles access was blocked (Cycle)
board.cache_hierarchy.l1icaches.blockedCycles::no_wbuffers            0                       # number of cycles access was blocked (Cycle)
board.cache_hierarchy.l1icaches.blockedCycles::no_targets            0                       # number of cycles access was blocked (Cycle)
board.cache_hierarchy.l1icaches.blockedCauses::no_mshrs            0                       # number of times access was blocked (Count)
board.cache_hierarchy.l1icaches.blockedCauses::no_wbuffers            0                       # number of times access was blocked (Count)
board.cache_hierarchy.l1icaches.blockedCauses::no_targets            0                       # number of times access was blocked (Count)
board.cache_hierarchy.l1icaches.avgBlocked::no_mshrs          nan                       # average number of cycles each access was blocked ((Cycle/Count))
board.cache_hierarchy.l1icaches.avgBlocked::no_wbuffers          nan                       # average number of cycles each access was blocked ((Cycle/Count))
board.cache_hierarchy.l1icaches.avgBlocked::no_targets          nan                       # average number of cycles each access was blocked ((Cycle/Count))
board.cache_hierarchy.l1icaches.demandMshrHits::processor.cores.core.inst            7                       # number of demand (read+write) MSHR hits (Count)
board.cache_hierarchy.l1icaches.demandMshrHits::total            7                       # number of demand (read+write) MSHR hits (Count)
board.cache_hierarchy.l1icaches.overallMshrHits::processor.cores.core.inst            7                       # number of overall MSHR hits (Count)
board.cache_hierarchy.l1icaches.overallMshrHits::total            7                       # number of overall MSHR hits (Count)
board.cache_hierarchy.l1icaches.demandMshrMisses::processor.cores.core.inst           13                       # number of demand (read+write) MSHR misses (Count)
board.cache_hierarchy.l1icaches.demandMshrMisses::total           13                       # number of demand (read+write) MSHR misses (Count)
board.cache_hierarchy.l1icaches.overallMshrMisses::processor.cores.core.inst           13                       # number of overall MSHR misses (Count)
board.cache_hierarchy.l1icaches.overallMshrMisses::total           13                       # number of overall MSHR misses (Count)
board.cache_hierarchy.l1icaches.demandMshrMissLatency::processor.cores.core.inst       859806                       # number of demand (read+write) MSHR miss ticks (Tick)
board.cache_hierarchy.l1icaches.demandMshrMissLatency::total       859806                       # number of demand (read+write) MSHR miss ticks (Tick)
board.cache_hierarchy.l1icaches.overallMshrMissLatency::processor.cores.core.inst       859806                       # number of overall MSHR miss ticks (Tick)
board.cache_hierarchy.l1icaches.overallMshrMissLatency::total       859806                       # number of overall MSHR miss ticks (Tick)
board.cache_hierarchy.l1icaches.demandMshrMissRate::processor.cores.core.inst     0.001910                       # mshr miss ratio for demand accesses (Ratio)
board.cache_hierarchy.l1icaches.demandMshrMissRate::total     0.001910                       # mshr miss ratio for demand accesses (Ratio)
board.cache_hierarchy.l1icaches.overallMshrMissRate::processor.cores.core.inst     0.001910                       # mshr miss ratio for overall accesses (Ratio)
board.cache_hierarchy.l1icaches.overallMshrMissRate::total     0.001910                       # mshr miss ratio for overall accesses (Ratio)
board.cache_hierarchy.l1icaches.demandAvgMshrMissLatency::processor.cores.core.inst 66138.923077                       # average overall mshr miss latency ((Tick/Count))
board.cache_hierarchy.l1icaches.demandAvgMshrMissLatency::total 66138.923077                       # average overall mshr miss latency ((Tick/Count))
board.cache_hierarchy.l1icaches.overallAvgMshrMissLatency::processor.cores.core.inst 66138.923077                       # average overall mshr miss latency ((Tick/Count))
board.cache_hierarchy.l1icaches.overallAvgMshrMissLatency::total 66138.923077                       # average overall mshr miss latency ((Tick/Count))
board.cache_hierarchy.l1icaches.replacements            0                       # number of replacements (Count)
board.cache_hierarchy.l1icaches.ReadReq.hits::processor.cores.core.inst         6785                       # number of ReadReq hits (Count)
board.cache_hierarchy.l1icaches.ReadReq.hits::total         6785                       # number of ReadReq hits (Count)
board.cache_hierarchy.l1icaches.ReadReq.misses::processor.cores.core.inst           20                       # number of ReadReq misses (Count)
board.cache_hierarchy.l1icaches.ReadReq.misses::total           20                       # number of ReadReq misses (Count)
board.cache_hierarchy.l1icaches.ReadReq.missLatency::processor.cores.core.inst      1072260                       # number of ReadReq miss ticks (Tick)
board.cache_hierarchy.l1icaches.ReadReq.missLatency::total      1072260                       # number of ReadReq miss ticks (Tick)
board.cache_hierarchy.l1icaches.ReadReq.accesses::processor.cores.core.inst         6805                       # number of ReadReq accesses(hits+misses) (Count)
board.cache_hierarchy.l1icaches.ReadReq.accesses::total         6805                       # number of ReadReq accesses(hits+misses) (Count)
board.cache_hierarchy.l1icaches.ReadReq.missRate::processor.cores.core.inst     0.002939                       # miss rate for ReadReq accesses (Ratio)
board.cache_hierarchy.l1icaches.ReadReq.missRate::total     0.002939                       # miss rate for ReadReq accesses (Ratio)
board.cache_hierarchy.l1icaches.ReadReq.avgMissLatency::processor.cores.core.inst        53613                       # average ReadReq miss latency ((Tick/Count))
board.cache_hierarchy.l1icaches.ReadReq.avgMissLatency::total        53613                       # average ReadReq miss latency ((Tick/Count))
board.cache_hierarchy.l1icaches.ReadReq.mshrHits::processor.cores.core.inst            7                       # number of ReadReq MSHR hits (Count)
board.cache_hierarchy.l1icaches.ReadReq.mshrHits::total            7                       # number of ReadReq MSHR hits (Count)
board.cache_hierarchy.l1icaches.ReadReq.mshrMisses::processor.cores.core.inst           13                       # number of ReadReq MSHR misses (Count)
board.cache_hierarchy.l1icaches.ReadReq.mshrMisses::total           13                       # number of ReadReq MSHR misses (Count)
board.cache_hierarchy.l1icaches.ReadReq.mshrMissLatency::processor.cores.core.inst       859806                       # number of ReadReq MSHR miss ticks (Tick)
board.cache_hierarchy.l1icaches.ReadReq.mshrMissLatency::total       859806                       # number of ReadReq MSHR miss ticks (Tick)
board.cache_hierarchy.l1icaches.ReadReq.mshrMissRate::processor.cores.core.inst     0.001910                       # mshr miss rate for ReadReq accesses (Ratio)
board.cache_hierarchy.l1icaches.ReadReq.mshrMissRate::total     0.001910                       # mshr miss rate for ReadReq accesses (Ratio)
board.cache_hierarchy.l1icaches.ReadReq.avgMshrMissLatency::processor.cores.core.inst 66138.923077                       # average ReadReq mshr miss latency ((Tick/Count))
board.cache_hierarchy.l1icaches.ReadReq.avgMshrMissLatency::total 66138.923077                       # average ReadReq mshr miss latency ((Tick/Count))
board.cache_hierarchy.l1icaches.power_state.pwrStateResidencyTicks::UNDEFINED     48032919                       # Cumulative time (in ticks) in various power states (Tick)
board.cache_hierarchy.l1icaches.prefetcher.demandMshrMisses           13                       # demands not covered by prefetchs (Count)
board.cache_hierarchy.l1icaches.prefetcher.pfIssued            0                       # number of hwpf issued (Count)
board.cache_hierarchy.l1icaches.prefetcher.pfUseful            0                       # number of useful prefetch (Count)
board.cache_hierarchy.l1icaches.prefetcher.pfUsefulButMiss            0                       # number of hit on prefetch but cache block is not in an usable state (Count)
board.cache_hierarchy.l1icaches.prefetcher.accuracy          nan                       # accuracy of the prefetcher (Count)
board.cache_hierarchy.l1icaches.prefetcher.coverage            0                       # coverage brought by this prefetcher (Count)
board.cache_hierarchy.l1icaches.prefetcher.pfHitInCache            0                       # number of prefetches hitting in cache (Count)
board.cache_hierarchy.l1icaches.prefetcher.pfHitInMSHR            0                       # number of prefetches hitting in a MSHR (Count)
board.cache_hierarchy.l1icaches.prefetcher.pfHitInWB            0                       # number of prefetches hit in the Write Buffer (Count)
board.cache_hierarchy.l1icaches.prefetcher.pfLate            0                       # number of late prefetches (hitting in cache, MSHR or WB) (Count)
board.cache_hierarchy.l1icaches.prefetcher.pfIdentified            0                       # number of prefetch candidates identified (Count)
board.cache_hierarchy.l1icaches.prefetcher.pfBufferHit            0                       # number of redundant prefetches already in prefetch queue (Count)
board.cache_hierarchy.l1icaches.prefetcher.pfInCache            0                       # number of redundant prefetches already in cache/mshr dropped (Count)
board.cache_hierarchy.l1icaches.prefetcher.pfRemovedDemand            0                       # number of prefetches dropped due to a demand for the same address (Count)
board.cache_hierarchy.l1icaches.prefetcher.pfRemovedFull            0                       # number of prefetches dropped due to prefetch queue size (Count)
board.cache_hierarchy.l1icaches.prefetcher.pfSpanPage            0                       # number of prefetches that crossed the page (Count)
board.cache_hierarchy.l1icaches.prefetcher.pfUsefulSpanPage            0                       # number of prefetches that is useful and crossed the page (Count)
board.cache_hierarchy.l1icaches.prefetcher.power_state.pwrStateResidencyTicks::UNDEFINED     48032919                       # Cumulative time (in ticks) in various power states (Tick)
board.cache_hierarchy.l1icaches.tags.tagsInUse   280.714983                       # Average ticks per tags in use ((Tick/Count))
board.cache_hierarchy.l1icaches.tags.totalRefs            0                       # Total number of references to valid blocks. (Count)
board.cache_hierarchy.l1icaches.tags.sampledRefs            0                       # Sample count of references to valid blocks. (Count)
board.cache_hierarchy.l1icaches.tags.avgRefs          nan                       # Average number of references to valid blocks. ((Count/Count))
board.cache_hierarchy.l1icaches.tags.warmupTick            0                       # The tick when the warmup percentage was hit. (Tick)
board.cache_hierarchy.l1icaches.tags.occupancies::processor.cores.core.inst   280.714983                       # Average occupied blocks per tick, per requestor ((Count/Tick))
board.cache_hierarchy.l1icaches.tags.avgOccs::processor.cores.core.inst     0.548271                       # Average percentage of cache occupancy ((Ratio/Tick))
board.cache_hierarchy.l1icaches.tags.avgOccs::total     0.548271                       # Average percentage of cache occupancy ((Ratio/Tick))
board.cache_hierarchy.l1icaches.tags.occupanciesTaskId::1024          288                       # Occupied blocks per task id (Count)
board.cache_hierarchy.l1icaches.tags.ageTaskId_1024::0           12                       # Occupied blocks per task id, per block age (Count)
board.cache_hierarchy.l1icaches.tags.ageTaskId_1024::1          276                       # Occupied blocks per task id, per block age (Count)
board.cache_hierarchy.l1icaches.tags.ratioOccsTaskId::1024     0.562500                       # Ratio of occupied blocks and all blocks, per task id (Ratio)
board.cache_hierarchy.l1icaches.tags.tagAccesses        54452                       # Number of tag accesses (Count)
board.cache_hierarchy.l1icaches.tags.dataAccesses        54452                       # Number of data accesses (Count)
board.cache_hierarchy.l1icaches.tags.power_state.pwrStateResidencyTicks::UNDEFINED     48032919                       # Cumulative time (in ticks) in various power states (Tick)
board.cache_hierarchy.membus.transDist::ReadResp           33                       # Transaction distribution (Count)
board.cache_hierarchy.membus.transDist::WritebackDirty           25                       # Transaction distribution (Count)
board.cache_hierarchy.membus.transDist::ReadExReq            4                       # Transaction distribution (Count)
board.cache_hierarchy.membus.transDist::ReadExResp            4                       # Transaction distribution (Count)
board.cache_hierarchy.membus.transDist::ReadSharedReq           32                       # Transaction distribution (Count)
board.cache_hierarchy.membus.pktCount_board.cache_hierarchy.l1icaches.mem_side_port::board.memory.mem_ctrl.port           25                       # Packet count per connected requestor and responder (Count)
board.cache_hierarchy.membus.pktCount_board.cache_hierarchy.l1icaches.mem_side_port::total           25                       # Packet count per connected requestor and responder (Count)
board.cache_hierarchy.membus.pktCount_board.cache_hierarchy.l1dcaches.mem_side_port::board.memory.mem_ctrl.port           73                       # Packet count per connected requestor and responder (Count)
board.cache_hierarchy.membus.pktCount_board.cache_hierarchy.l1dcaches.mem_side_port::total           73                       # Packet count per connected requestor and responder (Count)
board.cache_hierarchy.membus.pktCount::total           98                       # Packet count per connected requestor and responder (Count)
board.cache_hierarchy.membus.pktSize_board.cache_hierarchy.l1icaches.mem_side_port::board.memory.mem_ctrl.port          768                       # Cumulative packet size per connected requestor and responder (Byte)
board.cache_hierarchy.membus.pktSize_board.cache_hierarchy.l1icaches.mem_side_port::total          768                       # Cumulative packet size per connected requestor and responder (Byte)
board.cache_hierarchy.membus.pktSize_board.cache_hierarchy.l1dcaches.mem_side_port::board.memory.mem_ctrl.port         3200                       # Cumulative packet size per connected requestor and responder (Byte)
board.cache_hierarchy.membus.pktSize_board.cache_hierarchy.l1dcaches.mem_side_port::total         3200                       # Cumulative packet size per connected requestor and responder (Byte)
board.cache_hierarchy.membus.pktSize::total         3968                       # Cumulative packet size per connected requestor and responder (Byte)
board.cache_hierarchy.membus.snoops                 0                       # Total snoops (Count)
board.cache_hierarchy.membus.snoopTraffic            0                       # Total snoop traffic (Byte)
board.cache_hierarchy.membus.snoopFanout::samples           36                       # Request fanout histogram (Count)
board.cache_hierarchy.membus.snoopFanout::mean            0                       # Request fanout histogram (Count)
board.cache_hierarchy.membus.snoopFanout::stdev            0                       # Request fanout histogram (Count)
board.cache_hierarchy.membus.snoopFanout::underflows            0      0.00%      0.00% # Request fanout histogram (Count)
board.cache_hierarchy.membus.snoopFanout::0           36    100.00%    100.00% # Request fanout histogram (Count)
board.cache_hierarchy.membus.snoopFanout::1            0      0.00%    100.00% # Request fanout histogram (Count)
board.cache_hierarchy.membus.snoopFanout::2            0      0.00%    100.00% # Request fanout histogram (Count)
board.cache_hierarchy.membus.snoopFanout::overflows            0      0.00%    100.00% # Request fanout histogram (Count)
board.cache_hierarchy.membus.snoopFanout::min_value            0                       # Request fanout histogram (Count)
board.cache_hierarchy.membus.snoopFanout::max_value            0                       # Request fanout histogram (Count)
board.cache_hierarchy.membus.snoopFanout::total           36                       # Request fanout histogram (Count)
board.cache_hierarchy.membus.badaddr_responder.power_state.pwrStateResidencyTicks::UNDEFINED     48032919                       # Cumulative time (in ticks) in various power states (Tick)
board.cache_hierarchy.membus.power_state.pwrStateResidencyTicks::UNDEFINED     48032919                       # Cumulative time (in ticks) in various power states (Tick)
board.cache_hierarchy.membus.reqLayer0.occupancy        28968                       # Layer occupancy (ticks) (Tick)
board.cache_hierarchy.membus.reqLayer0.utilization          0.0                       # Layer utilization (Ratio)
board.cache_hierarchy.membus.respLayer1.occupancy        10206                       # Layer occupancy (ticks) (Tick)
board.cache_hierarchy.membus.respLayer1.utilization          0.0                       # Layer utilization (Ratio)
board.cache_hierarchy.membus.respLayer2.occupancy        21428                       # Layer occupancy (ticks) (Tick)
board.cache_hierarchy.membus.respLayer2.utilization          0.0                       # Layer utilization (Ratio)
board.cache_hierarchy.membus.snoop_filter.totRequests           61                       # Total number of requests made to the snoop filter. (Count)
board.cache_hierarchy.membus.snoop_filter.hitSingleRequests           25                       # Number of requests hitting in the snoop filter with a single holder of the requested data. (Count)
board.cache_hierarchy.membus.snoop_filter.hitMultiRequests            0                       # Number of requests hitting in the snoop filter with multiple (>1) holders of the requested data. (Count)
board.cache_hierarchy.membus.snoop_filter.totSnoops            0                       # Total number of snoops made to the snoop filter. (Count)
board.cache_hierarchy.membus.snoop_filter.hitSingleSnoops            0                       # Number of snoops hitting in the snoop filter with a single holder of the requested data. (Count)
board.cache_hierarchy.membus.snoop_filter.hitMultiSnoops            0                       # Number of snoops hitting in the snoop filter with multiple (>1) holders of the requested data. (Count)
board.clk_domain.clock                            333                       # Clock period in ticks (Tick)
board.clk_domain.voltage_domain.voltage             1                       # Voltage in Volts (Volt)
board.memory.mem_ctrl.avgPriority_writebacks::samples        25.00                       # Average QoS priority value for accepted requests (Count)
board.memory.mem_ctrl.avgPriority_cache_hierarchy.l1dcaches.prefetcher::samples         5.00                       # Average QoS priority value for accepted requests (Count)
board.memory.mem_ctrl.avgPriority_processor.cores.core.inst::samples        13.00                       # Average QoS priority value for accepted requests (Count)
board.memory.mem_ctrl.avgPriority_processor.cores.core.data::samples        12.00                       # Average QoS priority value for accepted requests (Count)
board.memory.mem_ctrl.priorityMinLatency 0.000000018750                       # per QoS priority minimum request to response latency (Second)
board.memory.mem_ctrl.priorityMaxLatency 0.000042338950                       # per QoS priority maximum request to response latency (Second)
board.memory.mem_ctrl.numReadWriteTurnArounds            1                       # Number of turnarounds from READ to WRITE (Count)
board.memory.mem_ctrl.numWriteReadTurnArounds            1                       # Number of turnarounds from WRITE to READ (Count)
board.memory.mem_ctrl.numStayReadState             86                       # Number of times bus staying in READ state (Count)
board.memory.mem_ctrl.numStayWriteState            17                       # Number of times bus staying in WRITE state (Count)
board.memory.mem_ctrl.readReqs                     36                       # Number of read requests accepted (Count)
board.memory.mem_ctrl.writeReqs                    25                       # Number of write requests accepted (Count)
board.memory.mem_ctrl.readBursts                   36                       # Number of controller read bursts, including those serviced by the write queue (Count)
board.memory.mem_ctrl.writeBursts                  25                       # Number of controller write bursts, including those merged in the write queue (Count)
board.memory.mem_ctrl.servicedByWrQ                 6                       # Number of controller read bursts serviced by the write queue (Count)
board.memory.mem_ctrl.mergedWrBursts                0                       # Number of controller write bursts merged with an existing one (Count)
board.memory.mem_ctrl.neitherReadNorWriteReqs            0                       # Number of requests that are neither read nor write (Count)
board.memory.mem_ctrl.avgRdQLen                  1.81                       # Average read queue length when enqueuing ((Count/Tick))
board.memory.mem_ctrl.avgWrQLen                 23.01                       # Average write queue length when enqueuing ((Count/Tick))
board.memory.mem_ctrl.numRdRetry                    0                       # Number of times read queue was full causing retry (Count)
board.memory.mem_ctrl.numWrRetry                    0                       # Number of times write queue was full causing retry (Count)
board.memory.mem_ctrl.readPktSize::0                0                       # Read request sizes (log2) (Count)
board.memory.mem_ctrl.readPktSize::1                0                       # Read request sizes (log2) (Count)
board.memory.mem_ctrl.readPktSize::2                0                       # Read request sizes (log2) (Count)
board.memory.mem_ctrl.readPktSize::3                0                       # Read request sizes (log2) (Count)
board.memory.mem_ctrl.readPktSize::4                0                       # Read request sizes (log2) (Count)
board.memory.mem_ctrl.readPktSize::5                0                       # Read request sizes (log2) (Count)
board.memory.mem_ctrl.readPktSize::6               36                       # Read request sizes (log2) (Count)
board.memory.mem_ctrl.writePktSize::0               0                       # Write request sizes (log2) (Count)
board.memory.mem_ctrl.writePktSize::1               0                       # Write request sizes (log2) (Count)
board.memory.mem_ctrl.writePktSize::2               0                       # Write request sizes (log2) (Count)
board.memory.mem_ctrl.writePktSize::3               0                       # Write request sizes (log2) (Count)
board.memory.mem_ctrl.writePktSize::4               0                       # Write request sizes (log2) (Count)
board.memory.mem_ctrl.writePktSize::5               0                       # Write request sizes (log2) (Count)
board.memory.mem_ctrl.writePktSize::6              25                       # Write request sizes (log2) (Count)
board.memory.mem_ctrl.rdQLenPdf::0                 18                       # What read queue length does an incoming req see (Count)
board.memory.mem_ctrl.rdQLenPdf::1                  8                       # What read queue length does an incoming req see (Count)
board.memory.mem_ctrl.rdQLenPdf::2                  2                       # What read queue length does an incoming req see (Count)
board.memory.mem_ctrl.rdQLenPdf::3                  1                       # What read queue length does an incoming req see (Count)
board.memory.mem_ctrl.rdQLenPdf::4                  1                       # What read queue length does an incoming req see (Count)
board.memory.mem_ctrl.rdQLenPdf::5                  0                       # What read queue length does an incoming req see (Count)
board.memory.mem_ctrl.rdQLenPdf::6                  0                       # What read queue length does an incoming req see (Count)
board.memory.mem_ctrl.rdQLenPdf::7                  0                       # What read queue length does an incoming req see (Count)
board.memory.mem_ctrl.rdQLenPdf::8                  0                       # What read queue length does an incoming req see (Count)
board.memory.mem_ctrl.rdQLenPdf::9                  0                       # What read queue length does an incoming req see (Count)
board.memory.mem_ctrl.rdQLenPdf::10                 0                       # What read queue length does an incoming req see (Count)
board.memory.mem_ctrl.rdQLenPdf::11                 0                       # What read queue length does an incoming req see (Count)
board.memory.mem_ctrl.rdQLenPdf::12                 0                       # What read queue length does an incoming req see (Count)
board.memory.mem_ctrl.rdQLenPdf::13                 0                       # What read queue length does an incoming req see (Count)
board.memory.mem_ctrl.rdQLenPdf::14                 0                       # What read queue length does an incoming req see (Count)
board.memory.mem_ctrl.rdQLenPdf::15                 0                       # What read queue length does an incoming req see (Count)
board.memory.mem_ctrl.rdQLenPdf::16                 0                       # What read queue length does an incoming req see (Count)
board.memory.mem_ctrl.rdQLenPdf::17                 0                       # What read queue length does an incoming req see (Count)
board.memory.mem_ctrl.rdQLenPdf::18                 0                       # What read queue length does an incoming req see (Count)
board.memory.mem_ctrl.rdQLenPdf::19                 0                       # What read queue length does an incoming req see (Count)
board.memory.mem_ctrl.rdQLenPdf::20                 0                       # What read queue length does an incoming req see (Count)
board.memory.mem_ctrl.rdQLenPdf::21                 0                       # What read queue length does an incoming req see (Count)
board.memory.mem_ctrl.rdQLenPdf::22                 0                       # What read queue length does an incoming req see (Count)
board.memory.mem_ctrl.rdQLenPdf::23                 0                       # What read queue length does an incoming req see (Count)
board.memory.mem_ctrl.rdQLenPdf::24                 0                       # What read queue length does an incoming req see (Count)
board.memory.mem_ctrl.rdQLenPdf::25                 0                       # What read queue length does an incoming req see (Count)
board.memory.mem_ctrl.rdQLenPdf::26                 0                       # What read queue length does an incoming req see (Count)
board.memory.mem_ctrl.rdQLenPdf::27                 0                       # What read queue length does an incoming req see (Count)
board.memory.mem_ctrl.rdQLenPdf::28                 0                       # What read queue length does an incoming req see (Count)
board.memory.mem_ctrl.rdQLenPdf::29                 0                       # What read queue length does an incoming req see (Count)
board.memory.mem_ctrl.rdQLenPdf::30                 0                       # What read queue length does an incoming req see (Count)
board.memory.mem_ctrl.rdQLenPdf::31                 0                       # What read queue length does an incoming req see (Count)
board.memory.mem_ctrl.wrQLenPdf::0                  0                       # What write queue length does an incoming req see (Count)
board.memory.mem_ctrl.wrQLenPdf::1                  0                       # What write queue length does an incoming req see (Count)
board.memory.mem_ctrl.wrQLenPdf::2                  0                       # What write queue length does an incoming req see (Count)
board.memory.mem_ctrl.wrQLenPdf::3                  0                       # What write queue length does an incoming req see (Count)
board.memory.mem_ctrl.wrQLenPdf::4                  0                       # What write queue length does an incoming req see (Count)
board.memory.mem_ctrl.wrQLenPdf::5                  0                       # What write queue length does an incoming req see (Count)
board.memory.mem_ctrl.wrQLenPdf::6                  0                       # What write queue length does an incoming req see (Count)
board.memory.mem_ctrl.wrQLenPdf::7                  0                       # What write queue length does an incoming req see (Count)
board.memory.mem_ctrl.wrQLenPdf::8                  0                       # What write queue length does an incoming req see (Count)
board.memory.mem_ctrl.wrQLenPdf::9                  0                       # What write queue length does an incoming req see (Count)
board.memory.mem_ctrl.wrQLenPdf::10                 0                       # What write queue length does an incoming req see (Count)
board.memory.mem_ctrl.wrQLenPdf::11                 0                       # What write queue length does an incoming req see (Count)
board.memory.mem_ctrl.wrQLenPdf::12                 0                       # What write queue length does an incoming req see (Count)
board.memory.mem_ctrl.wrQLenPdf::13                 0                       # What write queue length does an incoming req see (Count)
board.memory.mem_ctrl.wrQLenPdf::14                 0                       # What write queue length does an incoming req see (Count)
board.memory.mem_ctrl.wrQLenPdf::15                 1                       # What write queue length does an incoming req see (Count)
board.memory.mem_ctrl.wrQLenPdf::16                 1                       # What write queue length does an incoming req see (Count)
board.memory.mem_ctrl.wrQLenPdf::17                 1                       # What write queue length does an incoming req see (Count)
board.memory.mem_ctrl.wrQLenPdf::18                 1                       # What write queue length does an incoming req see (Count)
board.memory.mem_ctrl.wrQLenPdf::19                 1                       # What write queue length does an incoming req see (Count)
board.memory.mem_ctrl.wrQLenPdf::20                 1                       # What write queue length does an incoming req see (Count)
board.memory.mem_ctrl.wrQLenPdf::21                 1                       # What write queue length does an incoming req see (Count)
board.memory.mem_ctrl.wrQLenPdf::22                 1                       # What write queue length does an incoming req see (Count)
board.memory.mem_ctrl.wrQLenPdf::23                 1                       # What write queue length does an incoming req see (Count)
board.memory.mem_ctrl.wrQLenPdf::24                 2                       # What write queue length does an incoming req see (Count)
board.memory.mem_ctrl.wrQLenPdf::25                 2                       # What write queue length does an incoming req see (Count)
board.memory.mem_ctrl.wrQLenPdf::26                 2                       # What write queue length does an incoming req see (Count)
board.memory.mem_ctrl.wrQLenPdf::27                 2                       # What write queue length does an incoming req see (Count)
board.memory.mem_ctrl.wrQLenPdf::28                 2                       # What write queue length does an incoming req see (Count)
board.memory.mem_ctrl.wrQLenPdf::29                 2                       # What write queue length does an incoming req see (Count)
board.memory.mem_ctrl.wrQLenPdf::30                 2                       # What write queue length does an incoming req see (Count)
board.memory.mem_ctrl.wrQLenPdf::31                 1                       # What write queue length does an incoming req see (Count)
board.memory.mem_ctrl.wrQLenPdf::32                 1                       # What write queue length does an incoming req see (Count)
board.memory.mem_ctrl.wrQLenPdf::33                 0                       # What write queue length does an incoming req see (Count)
board.memory.mem_ctrl.wrQLenPdf::34                 0                       # What write queue length does an incoming req see (Count)
board.memory.mem_ctrl.wrQLenPdf::35                 0                       # What write queue length does an incoming req see (Count)
board.memory.mem_ctrl.wrQLenPdf::36                 0                       # What write queue length does an incoming req see (Count)
board.memory.mem_ctrl.wrQLenPdf::37                 0                       # What write queue length does an incoming req see (Count)
board.memory.mem_ctrl.wrQLenPdf::38                 0                       # What write queue length does an incoming req see (Count)
board.memory.mem_ctrl.wrQLenPdf::39                 0                       # What write queue length does an incoming req see (Count)
board.memory.mem_ctrl.wrQLenPdf::40                 0                       # What write queue length does an incoming req see (Count)
board.memory.mem_ctrl.wrQLenPdf::41                 0                       # What write queue length does an incoming req see (Count)
board.memory.mem_ctrl.wrQLenPdf::42                 0                       # What write queue length does an incoming req see (Count)
board.memory.mem_ctrl.wrQLenPdf::43                 0                       # What write queue length does an incoming req see (Count)
board.memory.mem_ctrl.wrQLenPdf::44                 0                       # What write queue length does an incoming req see (Count)
board.memory.mem_ctrl.wrQLenPdf::45                 0                       # What write queue length does an incoming req see (Count)
board.memory.mem_ctrl.wrQLenPdf::46                 0                       # What write queue length does an incoming req see (Count)
board.memory.mem_ctrl.wrQLenPdf::47                 0                       # What write queue length does an incoming req see (Count)
board.memory.mem_ctrl.wrQLenPdf::48                 0                       # What write queue length does an incoming req see (Count)
board.memory.mem_ctrl.wrQLenPdf::49                 0                       # What write queue length does an incoming req see (Count)
board.memory.mem_ctrl.wrQLenPdf::50                 0                       # What write queue length does an incoming req see (Count)
board.memory.mem_ctrl.wrQLenPdf::51                 0                       # What write queue length does an incoming req see (Count)
board.memory.mem_ctrl.wrQLenPdf::52                 0                       # What write queue length does an incoming req see (Count)
board.memory.mem_ctrl.wrQLenPdf::53                 0                       # What write queue length does an incoming req see (Count)
board.memory.mem_ctrl.wrQLenPdf::54                 0                       # What write queue length does an incoming req see (Count)
board.memory.mem_ctrl.wrQLenPdf::55                 0                       # What write queue length does an incoming req see (Count)
board.memory.mem_ctrl.wrQLenPdf::56                 0                       # What write queue length does an incoming req see (Count)
board.memory.mem_ctrl.wrQLenPdf::57                 0                       # What write queue length does an incoming req see (Count)
board.memory.mem_ctrl.wrQLenPdf::58                 0                       # What write queue length does an incoming req see (Count)
board.memory.mem_ctrl.wrQLenPdf::59                 0                       # What write queue length does an incoming req see (Count)
board.memory.mem_ctrl.wrQLenPdf::60                 0                       # What write queue length does an incoming req see (Count)
board.memory.mem_ctrl.wrQLenPdf::61                 0                       # What write queue length does an incoming req see (Count)
board.memory.mem_ctrl.wrQLenPdf::62                 0                       # What write queue length does an incoming req see (Count)
board.memory.mem_ctrl.wrQLenPdf::63                 0                       # What write queue length does an incoming req see (Count)
board.memory.mem_ctrl.rdPerTurnAround::samples            1                       # Reads before turning the bus around for writes (Count)
board.memory.mem_ctrl.rdPerTurnAround::mean           99                       # Reads before turning the bus around for writes (Count)
board.memory.mem_ctrl.rdPerTurnAround::gmean    99.000000                       # Reads before turning the bus around for writes (Count)
board.memory.mem_ctrl.rdPerTurnAround::stdev          nan                       # Reads before turning the bus around for writes (Count)
board.memory.mem_ctrl.rdPerTurnAround::96-99            1    100.00%    100.00% # Reads before turning the bus around for writes (Count)
board.memory.mem_ctrl.rdPerTurnAround::total            1                       # Reads before turning the bus around for writes (Count)
board.memory.mem_ctrl.wrPerTurnAround::samples            1                       # Writes before turning the bus around for reads (Count)
board.memory.mem_ctrl.wrPerTurnAround::mean           18                       # Writes before turning the bus around for reads (Count)
board.memory.mem_ctrl.wrPerTurnAround::gmean    18.000000                       # Writes before turning the bus around for reads (Count)
board.memory.mem_ctrl.wrPerTurnAround::stdev          nan                       # Writes before turning the bus around for reads (Count)
board.memory.mem_ctrl.wrPerTurnAround::18            1    100.00%    100.00% # Writes before turning the bus around for reads (Count)
board.memory.mem_ctrl.wrPerTurnAround::total            1                       # Writes before turning the bus around for reads (Count)
board.memory.mem_ctrl.bytesReadWrQ                384                       # Total number of bytes read from write queue (Byte)
board.memory.mem_ctrl.bytesReadSys               2304                       # Total read bytes from the system interface side (Byte)
board.memory.mem_ctrl.bytesWrittenSys            1600                       # Total written bytes from the system interface side (Byte)
board.memory.mem_ctrl.avgRdBWSys         426935636.11742067                       # Average system read bandwidth in Byte/s ((Byte/Second))
board.memory.mem_ctrl.avgWrBWSys         296483080.63709772                       # Average system write bandwidth in Byte/s ((Byte/Second))
board.memory.mem_ctrl.totGap                  5407587                       # Total gap between requests (Tick)
board.memory.mem_ctrl.avgGap                 88648.97                       # Average gap between requests ((Tick/Count))
board.memory.mem_ctrl.requestorReadBytes::cache_hierarchy.l1dcaches.prefetcher          320                       # Per-requestor bytes read from memory (Byte)
board.memory.mem_ctrl.requestorReadBytes::processor.cores.core.inst          832                       # Per-requestor bytes read from memory (Byte)
board.memory.mem_ctrl.requestorReadBytes::processor.cores.core.data          768                       # Per-requestor bytes read from memory (Byte)
board.memory.mem_ctrl.requestorWriteBytes::writebacks         1152                       # Per-requestor bytes write to memory (Byte)
board.memory.mem_ctrl.requestorReadRate::cache_hierarchy.l1dcaches.prefetcher 59296616.127419538796                       # Per-requestor bytes read from memory rate ((Byte/Second))
board.memory.mem_ctrl.requestorReadRate::processor.cores.core.inst 154171201.931290805340                       # Per-requestor bytes read from memory rate ((Byte/Second))
board.memory.mem_ctrl.requestorReadRate::processor.cores.core.data 142311878.705806881189                       # Per-requestor bytes read from memory rate ((Byte/Second))
board.memory.mem_ctrl.requestorWriteRate::writebacks 213467818.058710336685                       # Per-requestor bytes write to memory rate ((Byte/Second))
board.memory.mem_ctrl.requestorReadAccesses::cache_hierarchy.l1dcaches.prefetcher            6                       # Per-requestor read serviced memory accesses (Count)
board.memory.mem_ctrl.requestorReadAccesses::processor.cores.core.inst           13                       # Per-requestor read serviced memory accesses (Count)
board.memory.mem_ctrl.requestorReadAccesses::processor.cores.core.data           17                       # Per-requestor read serviced memory accesses (Count)
board.memory.mem_ctrl.requestorWriteAccesses::writebacks           25                       # Per-requestor write serviced memory accesses (Count)
board.memory.mem_ctrl.requestorReadTotalLat::cache_hierarchy.l1dcaches.prefetcher       140420                       # Per-requestor read total memory access latency (Tick)
board.memory.mem_ctrl.requestorReadTotalLat::processor.cores.core.inst       592386                       # Per-requestor read total memory access latency (Tick)
board.memory.mem_ctrl.requestorReadTotalLat::processor.cores.core.data       567034                       # Per-requestor read total memory access latency (Tick)
board.memory.mem_ctrl.requestorWriteTotalLat::writebacks    277251075                       # Per-requestor write total memory access latency (Tick)
board.memory.mem_ctrl.requestorReadAvgLat::cache_hierarchy.l1dcaches.prefetcher     23403.33                       # Per-requestor read average memory access latency ((Tick/Count))
board.memory.mem_ctrl.requestorReadAvgLat::processor.cores.core.inst     45568.15                       # Per-requestor read average memory access latency ((Tick/Count))
board.memory.mem_ctrl.requestorReadAvgLat::processor.cores.core.data     33354.94                       # Per-requestor read average memory access latency ((Tick/Count))
board.memory.mem_ctrl.requestorWriteAvgLat::writebacks  11090043.00                       # Per-requestor write average memory access latency ((Tick/Count))
board.memory.mem_ctrl.dram.bytesRead::cache_hierarchy.l1dcaches.prefetcher          384                       # Number of bytes read from this memory (Byte)
board.memory.mem_ctrl.dram.bytesRead::processor.cores.core.inst          768                       # Number of bytes read from this memory (Byte)
board.memory.mem_ctrl.dram.bytesRead::processor.cores.core.data         1088                       # Number of bytes read from this memory (Byte)
board.memory.mem_ctrl.dram.bytesRead::total         2240                       # Number of bytes read from this memory (Byte)
board.memory.mem_ctrl.dram.bytesInstRead::processor.cores.core.inst          768                       # Number of instructions bytes read from this memory (Byte)
board.memory.mem_ctrl.dram.bytesInstRead::total          768                       # Number of instructions bytes read from this memory (Byte)
board.memory.mem_ctrl.dram.bytesWritten::writebacks         1600                       # Number of bytes written to this memory (Byte)
board.memory.mem_ctrl.dram.bytesWritten::total         1600                       # Number of bytes written to this memory (Byte)
board.memory.mem_ctrl.dram.numReads::cache_hierarchy.l1dcaches.prefetcher            6                       # Number of read requests responded to by this memory (Count)
board.memory.mem_ctrl.dram.numReads::processor.cores.core.inst           12                       # Number of read requests responded to by this memory (Count)
board.memory.mem_ctrl.dram.numReads::processor.cores.core.data           17                       # Number of read requests responded to by this memory (Count)
board.memory.mem_ctrl.dram.numReads::total           35                       # Number of read requests responded to by this memory (Count)
board.memory.mem_ctrl.dram.numWrites::writebacks           25                       # Number of write requests responded to by this memory (Count)
board.memory.mem_ctrl.dram.numWrites::total           25                       # Number of write requests responded to by this memory (Count)
board.memory.mem_ctrl.dram.bwRead::cache_hierarchy.l1dcaches.prefetcher     71155939                       # Total read bandwidth from this memory ((Byte/Second))
board.memory.mem_ctrl.dram.bwRead::processor.cores.core.inst    142311879                       # Total read bandwidth from this memory ((Byte/Second))
board.memory.mem_ctrl.dram.bwRead::processor.cores.core.data    201608495                       # Total read bandwidth from this memory ((Byte/Second))
board.memory.mem_ctrl.dram.bwRead::total    415076313                       # Total read bandwidth from this memory ((Byte/Second))
board.memory.mem_ctrl.dram.bwInstRead::processor.cores.core.inst    142311879                       # Instruction read bandwidth from this memory ((Byte/Second))
board.memory.mem_ctrl.dram.bwInstRead::total    142311879                       # Instruction read bandwidth from this memory ((Byte/Second))
board.memory.mem_ctrl.dram.bwWrite::writebacks    296483081                       # Write bandwidth from this memory ((Byte/Second))
board.memory.mem_ctrl.dram.bwWrite::total    296483081                       # Write bandwidth from this memory ((Byte/Second))
board.memory.mem_ctrl.dram.bwTotal::writebacks    296483081                       # Total bandwidth to/from this memory ((Byte/Second))
board.memory.mem_ctrl.dram.bwTotal::cache_hierarchy.l1dcaches.prefetcher     71155939                       # Total bandwidth to/from this memory ((Byte/Second))
board.memory.mem_ctrl.dram.bwTotal::processor.cores.core.inst    142311879                       # Total bandwidth to/from this memory ((Byte/Second))
board.memory.mem_ctrl.dram.bwTotal::processor.cores.core.data    201608495                       # Total bandwidth to/from this memory ((Byte/Second))
board.memory.mem_ctrl.dram.bwTotal::total    711559394                       # Total bandwidth to/from this memory ((Byte/Second))
board.memory.mem_ctrl.dram.readBursts              30                       # Number of DRAM read bursts (Count)
board.memory.mem_ctrl.dram.writeBursts             18                       # Number of DRAM write bursts (Count)
board.memory.mem_ctrl.dram.perBankRdBursts::0           13                       # Per bank write bursts (Count)
board.memory.mem_ctrl.dram.perBankRdBursts::1            1                       # Per bank write bursts (Count)
board.memory.mem_ctrl.dram.perBankRdBursts::2            9                       # Per bank write bursts (Count)
board.memory.mem_ctrl.dram.perBankRdBursts::3            0                       # Per bank write bursts (Count)
board.memory.mem_ctrl.dram.perBankRdBursts::4            6                       # Per bank write bursts (Count)
board.memory.mem_ctrl.dram.perBankRdBursts::5            0                       # Per bank write bursts (Count)
board.memory.mem_ctrl.dram.perBankRdBursts::6            0                       # Per bank write bursts (Count)
board.memory.mem_ctrl.dram.perBankRdBursts::7            0                       # Per bank write bursts (Count)
board.memory.mem_ctrl.dram.perBankRdBursts::8            0                       # Per bank write bursts (Count)
board.memory.mem_ctrl.dram.perBankRdBursts::9            1                       # Per bank write bursts (Count)
board.memory.mem_ctrl.dram.perBankRdBursts::10            0                       # Per bank write bursts (Count)
board.memory.mem_ctrl.dram.perBankRdBursts::11            0                       # Per bank write bursts (Count)
board.memory.mem_ctrl.dram.perBankRdBursts::12            0                       # Per bank write bursts (Count)
board.memory.mem_ctrl.dram.perBankRdBursts::13            0                       # Per bank write bursts (Count)
board.memory.mem_ctrl.dram.perBankRdBursts::14            0                       # Per bank write bursts (Count)
board.memory.mem_ctrl.dram.perBankRdBursts::15            0                       # Per bank write bursts (Count)
board.memory.mem_ctrl.dram.perBankWrBursts::0            0                       # Per bank write bursts (Count)
board.memory.mem_ctrl.dram.perBankWrBursts::1            0                       # Per bank write bursts (Count)
board.memory.mem_ctrl.dram.perBankWrBursts::2            0                       # Per bank write bursts (Count)
board.memory.mem_ctrl.dram.perBankWrBursts::3            0                       # Per bank write bursts (Count)
board.memory.mem_ctrl.dram.perBankWrBursts::4            0                       # Per bank write bursts (Count)
board.memory.mem_ctrl.dram.perBankWrBursts::5            0                       # Per bank write bursts (Count)
board.memory.mem_ctrl.dram.perBankWrBursts::6            0                       # Per bank write bursts (Count)
board.memory.mem_ctrl.dram.perBankWrBursts::7            0                       # Per bank write bursts (Count)
board.memory.mem_ctrl.dram.perBankWrBursts::8            0                       # Per bank write bursts (Count)
board.memory.mem_ctrl.dram.perBankWrBursts::9            9                       # Per bank write bursts (Count)
board.memory.mem_ctrl.dram.perBankWrBursts::10            2                       # Per bank write bursts (Count)
board.memory.mem_ctrl.dram.perBankWrBursts::11            0                       # Per bank write bursts (Count)
board.memory.mem_ctrl.dram.perBankWrBursts::12            5                       # Per bank write bursts (Count)
board.memory.mem_ctrl.dram.perBankWrBursts::13            0                       # Per bank write bursts (Count)
board.memory.mem_ctrl.dram.perBankWrBursts::14            2                       # Per bank write bursts (Count)
board.memory.mem_ctrl.dram.perBankWrBursts::15            0                       # Per bank write bursts (Count)
board.memory.mem_ctrl.dram.totQLat             737340                       # Total ticks spent queuing (Tick)
board.memory.mem_ctrl.dram.totBusLat           150000                       # Total ticks spent in databus transfers (Tick)
board.memory.mem_ctrl.dram.totMemAccLat       1299840                       # Total ticks spent from burst creation until serviced by the DRAM (Tick)
board.memory.mem_ctrl.dram.avgQLat           24578.00                       # Average queueing delay per DRAM burst ((Tick/Count))
board.memory.mem_ctrl.dram.avgBusLat          5000.00                       # Average bus latency per DRAM burst ((Tick/Count))
board.memory.mem_ctrl.dram.avgMemAccLat      43328.00                       # Average memory access latency per DRAM burst ((Tick/Count))
board.memory.mem_ctrl.dram.readRowHits             24                       # Number of row buffer hits during reads (Count)
board.memory.mem_ctrl.dram.writeRowHits            15                       # Number of row buffer hits during writes (Count)
board.memory.mem_ctrl.dram.readRowHitRate        80.00                       # Row buffer hit rate for reads (Ratio)
board.memory.mem_ctrl.dram.writeRowHitRate        83.33                       # Row buffer hit rate for writes (Ratio)
board.memory.mem_ctrl.dram.bytesPerActivate::samples           11                       # Bytes accessed per row activation (Byte)
board.memory.mem_ctrl.dram.bytesPerActivate::mean   296.727273                       # Bytes accessed per row activation (Byte)
board.memory.mem_ctrl.dram.bytesPerActivate::gmean   192.694083                       # Bytes accessed per row activation (Byte)
board.memory.mem_ctrl.dram.bytesPerActivate::stdev   300.558510                       # Bytes accessed per row activation (Byte)
board.memory.mem_ctrl.dram.bytesPerActivate::0-127            3     27.27%     27.27% # Bytes accessed per row activation (Byte)
board.memory.mem_ctrl.dram.bytesPerActivate::128-255            3     27.27%     54.55% # Bytes accessed per row activation (Byte)
board.memory.mem_ctrl.dram.bytesPerActivate::256-383            2     18.18%     72.73% # Bytes accessed per row activation (Byte)
board.memory.mem_ctrl.dram.bytesPerActivate::512-639            2     18.18%     90.91% # Bytes accessed per row activation (Byte)
board.memory.mem_ctrl.dram.bytesPerActivate::1024-1151            1      9.09%    100.00% # Bytes accessed per row activation (Byte)
[...]
board.processor.cores.core.fetch.ftNumber::max_value            0                       # Number of fetch targets processed each cycle (Total) (Count)
board.processor.cores.core.fetch.ftNumber::total        24357                       # Number of fetch targets processed each cycle (Total) (Count)
board.processor.cores.core.fetchStats0.numInsts        47572                       # Number of instructions fetched (thread level) (Count)
board.processor.cores.core.fetchStats0.numOps            0                       # Number of ops (including micro ops) fetched (thread level) (Count)
board.processor.cores.core.fetchStats0.fetchRate     0.767154                       # Number of inst fetches per cycle ((Count/Cycle))
board.processor.cores.core.fetchStats0.numBranches         6089                       # Number of branches fetched (Count)
board.processor.cores.core.fetchStats0.branchRate     0.098192                       # Number of branch fetches per cycle (Ratio)
board.processor.cores.core.fetchStats0.icacheStallCycles         9178                       # ICache total stall cycles (Cycle)
board.processor.cores.core.fetchStats0.numFetchSuspends            0                       # Number of times Execute suspended instruction fetching (Count)
board.processor.cores.core.ftq.inserts              0                       # The number of FTQ insertions (Count)
board.processor.cores.core.ftq.removals             0                       # The number of FTQ removals. Not including squashes (Count)
board.processor.cores.core.ftq.squashes             0                       # The number of FTQ squashes (Count)
board.processor.cores.core.ftq.locks                0                       # The number of times the FTQ got locked. (Count)
board.processor.cores.core.ftq.occupancy::samples            0                       # Distribution of the FTQ occupation. (Count)
board.processor.cores.core.ftq.occupancy::mean          nan                       # Distribution of the FTQ occupation. (Count)
board.processor.cores.core.ftq.occupancy::stdev          nan                       # Distribution of the FTQ occupation. (Count)
board.processor.cores.core.ftq.occupancy::underflows            0                       # Distribution of the FTQ occupation. (Count)
board.processor.cores.core.ftq.occupancy::0-3            0                       # Distribution of the FTQ occupation. (Count)
board.processor.cores.core.ftq.occupancy::4-7            0                       # Distribution of the FTQ occupation. (Count)
board.processor.cores.core.ftq.occupancy::8            0                       # Distribution of the FTQ occupation. (Count)
board.processor.cores.core.ftq.occupancy::overflows            0                       # Distribution of the FTQ occupation. (Count)
board.processor.cores.core.ftq.occupancy::min_value            0                       # Distribution of the FTQ occupation. (Count)
board.processor.cores.core.ftq.occupancy::max_value            0                       # Distribution of the FTQ occupation. (Count)
board.processor.cores.core.ftq.occupancy::total            0                       # Distribution of the FTQ occupation. (Count)
board.processor.cores.core.iew.dispatchStatus::running        32882     96.32%     96.32% # Number of cycles dispatch is running (Cycle)
board.processor.cores.core.iew.dispatchStatus::blocked          897      2.63%     98.94% # Number of cycles dispatch is blocked (Cycle)
board.processor.cores.core.iew.dispatchStatus::squashing          361      1.06%    100.00% # Number of cycles dispatch is squashing (Cycle)
board.processor.cores.core.iew.dispatchedInsts        43285                       # Number of instructions dispatched to IQ (Count)
board.processor.cores.core.iew.dispSquashedInsts           58                       # Number of squashed instructions skipped by dispatch (Count)
board.processor.cores.core.iew.dispLoadInsts        12712                       # Number of dispatched load instructions (Count)
board.processor.cores.core.iew.dispStoreInsts         2630                       # Number of dispatched store instructions (Count)
board.processor.cores.core.iew.dispNonSpecInsts           45                       # Number of dispatched non-speculative instructions (Count)
board.processor.cores.core.iew.iqFullEvents            0                       # Number of times the IQ has become full, causing a stall (Count)
board.processor.cores.core.iew.lsqFullEvents            0                       # Number of times the LSQ has become full, causing a stall (Count)
board.processor.cores.core.iew.memOrderViolationEvents           17                       # Number of memory order violations (Count)
board.processor.cores.core.iew.predictedTakenIncorrect           67                       # Number of branches that were predicted taken incorrectly (Count)
board.processor.cores.core.iew.predictedNotTakenIncorrect          327                       # Number of branches that were predicted not taken incorrectly (Count)
board.processor.cores.core.iew.branchMispredicts          394                       # Number of branch mispredicts detected at execute (Count)
board.processor.cores.core.iew.instsToCommit        41035                       # Cumulative count of insts sent to commit (Count)
board.processor.cores.core.iew.writebackCount        40906                       # Cumulative count of insts written-back (Count)
board.processor.cores.core.iew.producerInst        28317                       # Number of instructions producing a value (Count)
board.processor.cores.core.iew.consumerInst        33816                       # Number of instructions consuming a value (Count)
board.processor.cores.core.iew.wbRate        0.659657                       # Insts written-back per cycle ((Count/Cycle))
board.processor.cores.core.iew.wbFanout      0.837385                       # Average fanout of values written-back ((Count/Count))
board.processor.cores.core.lsq0.forwLoads          218                       # Number of loads that had data forwarded from stores (Count)
board.processor.cores.core.lsq0.squashedLoads          908                       # Number of loads squashed (Count)
board.processor.cores.core.lsq0.ignoredResponses            2                       # Number of memory responses ignored because the instruction is squashed (Count)
board.processor.cores.core.lsq0.memOrderViolation           17                       # Number of memory ordering violations (Count)
board.processor.cores.core.lsq0.squashedStores          404                       # Number of stores squashed (Count)
board.processor.cores.core.lsq0.rescheduledLoads            0                       # Number of loads that were rescheduled (Count)
board.processor.cores.core.lsq0.blockedByCache            0                       # Number of times an access to memory failed due to the cache being blocked (Count)
board.processor.cores.core.lsq0.loadToUse::samples        11804                       # Distribution of cycle latency between the first time a load is issued and its completion (Cycle)
board.processor.cores.core.lsq0.loadToUse::mean     3.961877                       # Distribution of cycle latency between the first time a load is issued and its completion (Cycle)
board.processor.cores.core.lsq0.loadToUse::stdev    18.753602                       # Distribution of cycle latency between the first time a load is issued and its completion (Cycle)
board.processor.cores.core.lsq0.loadToUse::0-9        11673     98.89%     98.89% # Distribution of cycle latency between the first time a load is issued and its completion (Cycle)
board.processor.cores.core.lsq0.loadToUse::10-19            1      0.01%     98.90% # Distribution of cycle latency between the first time a load is issued and its completion (Cycle)
board.processor.cores.core.lsq0.loadToUse::20-29           11      0.09%     98.99% # Distribution of cycle latency between the first time a load is issued and its completion (Cycle)
board.processor.cores.core.lsq0.loadToUse::30-39            6      0.05%     99.04% # Distribution of cycle latency between the first time a load is issued and its completion (Cycle)
board.processor.cores.core.lsq0.loadToUse::40-49           12      0.10%     99.14% # Distribution of cycle latency between the first time a load is issued and its completion (Cycle)
board.processor.cores.core.lsq0.loadToUse::60-69            5      0.04%     99.19% # Distribution of cycle latency between the first time a load is issued and its completion (Cycle)
board.processor.cores.core.lsq0.loadToUse::70-79            2      0.02%     99.20% # Distribution of cycle latency between the first time a load is issued and its completion (Cycle)
board.processor.cores.core.lsq0.loadToUse::80-89            1      0.01%     99.21% # Distribution of cycle latency between the first time a load is issued and its completion (Cycle)
board.processor.cores.core.lsq0.loadToUse::90-99            3      0.03%     99.24% # Distribution of cycle latency between the first time a load is issued and its completion (Cycle)
board.processor.cores.core.lsq0.loadToUse::100-109            1      0.01%     99.25% # Distribution of cycle latency between the first time a load is issued and its completion (Cycle)
board.processor.cores.core.lsq0.loadToUse::120-129            2      0.02%     99.26% # Distribution of cycle latency between the first time a load is issued and its completion (Cycle)
board.processor.cores.core.lsq0.loadToUse::130-139           27      0.23%     99.49% # Distribution of cycle latency between the first time a load is issued and its completion (Cycle)
board.processor.cores.core.lsq0.loadToUse::140-149           12      0.10%     99.59% # Distribution of cycle latency between the first time a load is issued and its completion (Cycle)
board.processor.cores.core.lsq0.loadToUse::150-159            3      0.03%     99.62% # Distribution of cycle latency between the first time a load is issued and its completion (Cycle)
board.processor.cores.core.lsq0.loadToUse::170-179           13      0.11%     99.73% # Distribution of cycle latency between the first time a load is issued and its completion (Cycle)
board.processor.cores.core.lsq0.loadToUse::180-189            1      0.01%     99.74% # Distribution of cycle latency between the first time a load is issued and its completion (Cycle)
board.processor.cores.core.lsq0.loadToUse::210-219           19      0.16%     99.90% # Distribution of cycle latency between the first time a load is issued and its completion (Cycle)
board.processor.cores.core.lsq0.loadToUse::220-229            2      0.02%     99.92% # Distribution of cycle latency between the first time a load is issued and its completion (Cycle)
board.processor.cores.core.lsq0.loadToUse::240-249            1      0.01%     99.92% # Distribution of cycle latency between the first time a load is issued and its completion (Cycle)
board.processor.cores.core.lsq0.loadToUse::260-269            1      0.01%     99.93% # Distribution of cycle latency between the first time a load is issued and its completion (Cycle)
board.processor.cores.core.lsq0.loadToUse::270-279            1      0.01%     99.94% # Distribution of cycle latency between the first time a load is issued and its completion (Cycle)
board.processor.cores.core.lsq0.loadToUse::overflows            7      0.06%    100.00% # Distribution of cycle latency between the first time a load is issued and its completion (Cycle)
board.processor.cores.core.lsq0.loadToUse::min_value            2                       # Distribution of cycle latency between the first time a load is issued and its completion (Cycle)
board.processor.cores.core.lsq0.loadToUse::max_value          883                       # Distribution of cycle latency between the first time a load is issued and its completion (Cycle)
board.processor.cores.core.lsq0.loadToUse::total        11804                       # Distribution of cycle latency between the first time a load is issued and its completion (Cycle)
board.processor.cores.core.lsq0.addedLoadsAndStores        15342                       # Number of loads and stores written to the Load Store Queue (Count)
board.processor.cores.core.lsq0.lqAvgOccupancy         0.13                       # Average LQ Occupancy (UsedSlots/TotalSlots) (Ratio)
board.processor.cores.core.lsq0.sqAvgOccupancy         0.05                       # Average SQ Occupancy (UsedSlots/TotalSlots) (Ratio)
board.processor.cores.core.mmu.dtb.readHits            0                       # read hits (Count)
board.processor.cores.core.mmu.dtb.readMisses            0                       # read misses (Count)
board.processor.cores.core.mmu.dtb.readAccesses            0                       # read accesses (Count)
board.processor.cores.core.mmu.dtb.writeHits            0                       # write hits (Count)
board.processor.cores.core.mmu.dtb.writeMisses            0                       # write misses (Count)
board.processor.cores.core.mmu.dtb.writeAccesses            0                       # write accesses (Count)
board.processor.cores.core.mmu.dtb.hits             0                       # Total TLB (read and write) hits (Count)
board.processor.cores.core.mmu.dtb.misses            0                       # Total TLB (read and write) misses (Count)
board.processor.cores.core.mmu.dtb.accesses            0                       # Total TLB (read and write) accesses (Count)
board.processor.cores.core.mmu.dtb.walker.num_4kb_walks            0                       # Completed page walks with 4KB pages (Count)
board.processor.cores.core.mmu.dtb.walker.num_64kb_walks            0                       # Completed page walks with 64KB pages (Count)
board.processor.cores.core.mmu.dtb.walker.num_2mb_walks            0                       # Completed page walks with 2MB pages (Count)
board.processor.cores.core.mmu.dtb.walker.power_state.pwrStateResidencyTicks::UNDEFINED     63285984                       # Cumulative time (in ticks) in various power states (Tick)
board.processor.cores.core.mmu.itb.readHits            0                       # read hits (Count)
board.processor.cores.core.mmu.itb.readMisses            0                       # read misses (Count)
board.processor.cores.core.mmu.itb.readAccesses            0                       # read accesses (Count)
board.processor.cores.core.mmu.itb.writeHits            0                       # write hits (Count)
board.processor.cores.core.mmu.itb.writeMisses            0                       # write misses (Count)
board.processor.cores.core.mmu.itb.writeAccesses            0                       # write accesses (Count)
board.processor.cores.core.mmu.itb.hits             0                       # Total TLB (read and write) hits (Count)
board.processor.cores.core.mmu.itb.misses            0                       # Total TLB (read and write) misses (Count)
board.processor.cores.core.mmu.itb.accesses            0                       # Total TLB (read and write) accesses (Count)
board.processor.cores.core.mmu.itb.walker.num_4kb_walks            0                       # Completed page walks with 4KB pages (Count)
board.processor.cores.core.mmu.itb.walker.num_64kb_walks            0                       # Completed page walks with 64KB pages (Count)
board.processor.cores.core.mmu.itb.walker.num_2mb_walks            0                       # Completed page walks with 2MB pages (Count)
board.processor.cores.core.mmu.itb.walker.power_state.pwrStateResidencyTicks::UNDEFINED     63285984                       # Cumulative time (in ticks) in various power states (Tick)
board.processor.cores.core.power_state.pwrStateResidencyTicks::ON     63285984                       # Cumulative time (in ticks) in various power states (Tick)
board.processor.cores.core.rename.status::Running        11827     34.64%     34.64% # Number of cycles rename is running (Cycle)
board.processor.cores.core.rename.status::Idle        10696     31.33%     65.97% # Number of cycles rename is idle (Cycle)
board.processor.cores.core.rename.status::Squashing          361      1.06%     67.03% # Number of cycles rename is squashing (Cycle)
board.processor.cores.core.rename.status::Blocked          898      2.63%     69.66% # Number of cycles rename is blocking (Cycle)
board.processor.cores.core.rename.status::Unblocking         7796     22.84%     92.50% # Number of cycles rename is unblocking (Cycle)
board.processor.cores.core.rename.status::SerializeStall         2562      7.50%    100.00% # Number of cycles rename stalled for serializing inst (Cycle)
board.processor.cores.core.rename.renamedInsts        44490                       # Number of instructions processed by rename (Count)
board.processor.cores.core.rename.ROBFullEvents           51                       # Number of times rename has blocked due to ROB full (Count)
board.processor.cores.core.rename.IQFullEvents           39                       # Number of times rename has blocked due to IQ full (Count)
board.processor.cores.core.rename.SQFullEvents           22                       # Number of times rename has blocked due to SQ full (Count)
board.processor.cores.core.rename.fullRegistersEvents         6923                       # Number of times there has been no free registers (Count)
board.processor.cores.core.rename.renamedOperands        36784                       # Number of destination operands rename has renamed (Count)
board.processor.cores.core.rename.lookups        60628                       # Number of register rename lookups that rename has made (Count)
board.processor.cores.core.rename.intLookups        39107                       # Number of integer rename lookups (Count)
board.processor.cores.core.rename.fpLookups        19950                       # Number of floating rename lookups (Count)
board.processor.cores.core.rename.committedMaps        32981                       # Number of HB maps that are committed (Count)
board.processor.cores.core.rename.undoneMaps         3805                       # Number of HB maps that are undone due to squashing (Count)
board.processor.cores.core.rename.serializing           35                       # count of serializing insts renamed (Count)
board.processor.cores.core.rename.tempSerializing           36                       # count of temporary serializing insts renamed (Count)
board.processor.cores.core.rename.skidInsts         6570                       # count of insts added to the skid buffer (Count)
board.processor.cores.core.rename.intReturned        14349                       # count of registers freed and written back to integer free list (Count)
board.processor.cores.core.rename.fpReturned        18596                       # count of registers freed and written back to floating point free list (Count)
board.processor.cores.core.rob.reads            69046                       # The number of ROB reads (Count)
board.processor.cores.core.rob.writes           87819                       # The number of ROB writes (Count)
board.processor.cores.core.thread_0.numInsts        39048                       # Number of Instructions committed (Count)
board.processor.cores.core.thread_0.numOps        39077                       # Number of Ops committed (Count)
board.processor.cores.core.thread_0.numMemRefs        14030                       # Number of Memory References (Count)
board.processor.cores.core.workload.numSyscalls            6                       # Number of system calls (Count)
board.workload.inst.arm                             0                       # number of arm instructions executed (Count)
board.workload.inst.quiesce                         0                       # number of quiesce instructions executed (Count)

---------- End Simulation Statistics   ----------
